New "Linecode.1_1" nphases=1 basefreq=60 r1=1.3526 x1=0.4537 units=km normamps=163.8000030517578
New "Linecode.1_2" nphases=2 basefreq=60 r1=1.3526 x1=0.4537 units=km normamps=163.8000030517578
New "Linecode.1_3" nphases=3 basefreq=60 r1=1.3526 x1=0.4537 units=km normamps=163.8000030517578
New "Linecode.1_4" nphases=4 basefreq=60 r1=1.3526 x1=0.4537 units=km normamps=163.8000030517578

New "Linecode.1_P_1" nphases=1 basefreq=60 r1=1.3526 x1=0.4537 units=km normamps=163.8000030517578
New "Linecode.1_P_2" nphases=2 basefreq=60 r1=1.3526 x1=0.4537 units=km normamps=163.8000030517578
New "Linecode.1_P_3" nphases=3 basefreq=60 r1=1.3526 x1=0.4537 units=km normamps=163.8000030517578
New "Linecode.1_P_4" nphases=4 basefreq=60 r1=1.3526 x1=0.4537 units=km normamps=163.8000030517578

New "Linecode.2_1" nphases=1 basefreq=60 r1=2.1532 x1=0.4712 units=km normamps=123.9000015258789
New "Linecode.2_2" nphases=2 basefreq=60 r1=2.1532 x1=0.4712 units=km normamps=123.9000015258789
New "Linecode.2_3" nphases=3 basefreq=60 r1=2.1532 x1=0.4712 units=km normamps=123.9000015258789
New "Linecode.2_4" nphases=4 basefreq=60 r1=2.1532 x1=0.4712 units=km normamps=123.9000015258789

New "Linecode.2_P_1" nphases=1 basefreq=60 r1=2.1532 x1=0.4712 units=km normamps=123.9000015258789
New "Linecode.2_P_2" nphases=2 basefreq=60 r1=2.1532 x1=0.4712 units=km normamps=123.9000015258789
New "Linecode.2_P_3" nphases=3 basefreq=60 r1=2.1532 x1=0.4712 units=km normamps=123.9000015258789
New "Linecode.2_P_4" nphases=4 basefreq=60 r1=2.1532 x1=0.4712 units=km normamps=123.9000015258789

New "Linecode.3_1" nphases=1 basefreq=60 r1=0.5682 x1=0.2920 units=km normamps=240.4499969482422
New "Linecode.3_2" nphases=2 basefreq=60 r1=0.5682 x1=0.2920 units=km normamps=240.4499969482422
New "Linecode.3_3" nphases=3 basefreq=60 r1=0.5682 x1=0.2920 units=km normamps=240.4499969482422
New "Linecode.3_4" nphases=4 basefreq=60 r1=0.5682 x1=0.2920 units=km normamps=240.4499969482422

New "Linecode.3_P_1" nphases=1 basefreq=60 r1=0.5682 x1=0.2920 units=km normamps=240.4499969482422
New "Linecode.3_P_2" nphases=2 basefreq=60 r1=0.5682 x1=0.2920 units=km normamps=240.4499969482422
New "Linecode.3_P_3" nphases=3 basefreq=60 r1=0.5682 x1=0.2920 units=km normamps=240.4499969482422
New "Linecode.3_P_4" nphases=4 basefreq=60 r1=0.5682 x1=0.2920 units=km normamps=240.4499969482422

New "Linecode.4_1" nphases=1 basefreq=60 r1=1.0714 x1=0.4449 units=km normamps=190.0500030517578
New "Linecode.4_2" nphases=2 basefreq=60 r1=1.0714 x1=0.4449 units=km normamps=190.0500030517578
New "Linecode.4_3" nphases=3 basefreq=60 r1=1.0714 x1=0.4449 units=km normamps=190.0500030517578
New "Linecode.4_4" nphases=4 basefreq=60 r1=1.0714 x1=0.4449 units=km normamps=190.0500030517578

New "Linecode.4_P_1" nphases=1 basefreq=60 r1=1.0714 x1=0.4449 units=km normamps=190.0500030517578
New "Linecode.4_P_2" nphases=2 basefreq=60 r1=1.0714 x1=0.4449 units=km normamps=190.0500030517578
New "Linecode.4_P_3" nphases=3 basefreq=60 r1=1.0714 x1=0.4449 units=km normamps=190.0500030517578
New "Linecode.4_P_4" nphases=4 basefreq=60 r1=1.0714 x1=0.4449 units=km normamps=190.0500030517578

New "Linecode.6_1" nphases=1 basefreq=60 r1=0.5340 x1=0.4186 units=km normamps=286.6499938964844
New "Linecode.6_2" nphases=2 basefreq=60 r1=0.5340 x1=0.4186 units=km normamps=286.6499938964844
New "Linecode.6_3" nphases=3 basefreq=60 r1=0.5340 x1=0.4186 units=km normamps=286.6499938964844
New "Linecode.6_4" nphases=4 basefreq=60 r1=0.5340 x1=0.4186 units=km normamps=286.6499938964844

New "Linecode.6_P_1" nphases=1 basefreq=60 r1=0.5340 x1=0.4186 units=km normamps=286.6499938964844
New "Linecode.6_P_2" nphases=2 basefreq=60 r1=0.5340 x1=0.4186 units=km normamps=286.6499938964844
New "Linecode.6_P_3" nphases=3 basefreq=60 r1=0.5340 x1=0.4186 units=km normamps=286.6499938964844
New "Linecode.6_P_4" nphases=4 basefreq=60 r1=0.5340 x1=0.4186 units=km normamps=286.6499938964844

New "Linecode.7_1" nphases=1 basefreq=60 r1=0.8540 x1=0.4462 units=km normamps=218.39999389648438
New "Linecode.7_2" nphases=2 basefreq=60 r1=0.8540 x1=0.4462 units=km normamps=218.39999389648438
New "Linecode.7_3" nphases=3 basefreq=60 r1=0.8540 x1=0.4462 units=km normamps=218.39999389648438
New "Linecode.7_4" nphases=4 basefreq=60 r1=0.8540 x1=0.4462 units=km normamps=218.39999389648438

New "Linecode.7_P_1" nphases=1 basefreq=60 r1=0.8540 x1=0.4462 units=km normamps=218.39999389648438
New "Linecode.7_P_2" nphases=2 basefreq=60 r1=0.8540 x1=0.4462 units=km normamps=218.39999389648438
New "Linecode.7_P_3" nphases=3 basefreq=60 r1=0.8540 x1=0.4462 units=km normamps=218.39999389648438
New "Linecode.7_P_4" nphases=4 basefreq=60 r1=0.8540 x1=0.4462 units=km normamps=218.39999389648438

New "Linecode.9_1" nphases=1 basefreq=60 r1=1.3526 x1=0.4537 units=km normamps=163.8000030517578
New "Linecode.9_2" nphases=2 basefreq=60 r1=1.3526 x1=0.4537 units=km normamps=163.8000030517578
New "Linecode.9_3" nphases=3 basefreq=60 r1=1.3526 x1=0.4537 units=km normamps=163.8000030517578
New "Linecode.9_4" nphases=4 basefreq=60 r1=1.3526 x1=0.4537 units=km normamps=163.8000030517578

New "Linecode.9_P_1" nphases=1 basefreq=60 r1=1.3526 x1=0.4537 units=km normamps=163.8000030517578
New "Linecode.9_P_2" nphases=2 basefreq=60 r1=1.3526 x1=0.4537 units=km normamps=163.8000030517578
New "Linecode.9_P_3" nphases=3 basefreq=60 r1=1.3526 x1=0.4537 units=km normamps=163.8000030517578
New "Linecode.9_P_4" nphases=4 basefreq=60 r1=1.3526 x1=0.4537 units=km normamps=163.8000030517578

New "Linecode.10_1" nphases=1 basefreq=60 r1=1.3526 x1=0.4537 units=km normamps=163.8000030517578
New "Linecode.10_2" nphases=2 basefreq=60 r1=1.3526 x1=0.4537 units=km normamps=163.8000030517578
New "Linecode.10_3" nphases=3 basefreq=60 r1=1.3526 x1=0.4537 units=km normamps=163.8000030517578
New "Linecode.10_4" nphases=4 basefreq=60 r1=1.3526 x1=0.4537 units=km normamps=163.8000030517578

New "Linecode.10_P_1" nphases=1 basefreq=60 r1=1.3526 x1=0.4537 units=km normamps=163.8000030517578
New "Linecode.10_P_2" nphases=2 basefreq=60 r1=1.3526 x1=0.4537 units=km normamps=163.8000030517578
New "Linecode.10_P_3" nphases=3 basefreq=60 r1=1.3526 x1=0.4537 units=km normamps=163.8000030517578
New "Linecode.10_P_4" nphases=4 basefreq=60 r1=1.3526 x1=0.4537 units=km normamps=163.8000030517578

New "Linecode.11_1" nphases=1 basefreq=60 r1=0.5340 x1=0.4186 units=km normamps=286.6499938964844
New "Linecode.11_2" nphases=2 basefreq=60 r1=0.5340 x1=0.4186 units=km normamps=286.6499938964844
New "Linecode.11_3" nphases=3 basefreq=60 r1=0.5340 x1=0.4186 units=km normamps=286.6499938964844
New "Linecode.11_4" nphases=4 basefreq=60 r1=0.5340 x1=0.4186 units=km normamps=286.6499938964844

New "Linecode.11_P_1" nphases=1 basefreq=60 r1=0.5340 x1=0.4186 units=km normamps=286.6499938964844
New "Linecode.11_P_2" nphases=2 basefreq=60 r1=0.5340 x1=0.4186 units=km normamps=286.6499938964844
New "Linecode.11_P_3" nphases=3 basefreq=60 r1=0.5340 x1=0.4186 units=km normamps=286.6499938964844
New "Linecode.11_P_4" nphases=4 basefreq=60 r1=0.5340 x1=0.4186 units=km normamps=286.6499938964844

New "Linecode.12_1" nphases=1 basefreq=60 r1=0.3364 x1=0.4012 units=km normamps=371.70001220703125
New "Linecode.12_2" nphases=2 basefreq=60 r1=0.3364 x1=0.4012 units=km normamps=371.70001220703125
New "Linecode.12_3" nphases=3 basefreq=60 r1=0.3364 x1=0.4012 units=km normamps=371.70001220703125
New "Linecode.12_4" nphases=4 basefreq=60 r1=0.3364 x1=0.4012 units=km normamps=371.70001220703125

New "Linecode.12_P_1" nphases=1 basefreq=60 r1=0.3364 x1=0.4012 units=km normamps=371.70001220703125
New "Linecode.12_P_2" nphases=2 basefreq=60 r1=0.3364 x1=0.4012 units=km normamps=371.70001220703125
New "Linecode.12_P_3" nphases=3 basefreq=60 r1=0.3364 x1=0.4012 units=km normamps=371.70001220703125
New "Linecode.12_P_4" nphases=4 basefreq=60 r1=0.3364 x1=0.4012 units=km normamps=371.70001220703125

New "Linecode.13_1" nphases=1 basefreq=60 r1=0.8500 x1=0.4362 units=km normamps=216.3000030517578
New "Linecode.13_2" nphases=2 basefreq=60 r1=0.8500 x1=0.4362 units=km normamps=216.3000030517578
New "Linecode.13_3" nphases=3 basefreq=60 r1=0.8500 x1=0.4362 units=km normamps=216.3000030517578
New "Linecode.13_4" nphases=4 basefreq=60 r1=0.8500 x1=0.4362 units=km normamps=216.3000030517578

New "Linecode.13_P_1" nphases=1 basefreq=60 r1=0.8500 x1=0.4362 units=km normamps=216.3000030517578
New "Linecode.13_P_2" nphases=2 basefreq=60 r1=0.8500 x1=0.4362 units=km normamps=216.3000030517578
New "Linecode.13_P_3" nphases=3 basefreq=60 r1=0.8500 x1=0.4362 units=km normamps=216.3000030517578
New "Linecode.13_P_4" nphases=4 basefreq=60 r1=0.8500 x1=0.4362 units=km normamps=216.3000030517578

New "Linecode.14_1" nphases=1 basefreq=60 r1=0.8540 x1=0.4462 units=km normamps=218.39999389648438
New "Linecode.14_2" nphases=2 basefreq=60 r1=0.8540 x1=0.4462 units=km normamps=218.39999389648438
New "Linecode.14_3" nphases=3 basefreq=60 r1=0.8540 x1=0.4462 units=km normamps=218.39999389648438
New "Linecode.14_4" nphases=4 basefreq=60 r1=0.8540 x1=0.4462 units=km normamps=218.39999389648438

New "Linecode.14_P_1" nphases=1 basefreq=60 r1=0.8540 x1=0.4462 units=km normamps=218.39999389648438
New "Linecode.14_P_2" nphases=2 basefreq=60 r1=0.8540 x1=0.4462 units=km normamps=218.39999389648438
New "Linecode.14_P_3" nphases=3 basefreq=60 r1=0.8540 x1=0.4462 units=km normamps=218.39999389648438
New "Linecode.14_P_4" nphases=4 basefreq=60 r1=0.8540 x1=0.4462 units=km normamps=218.39999389648438

New "Linecode.15_1" nphases=1 basefreq=60 r1=2.6513 x1=2.0970 units=km normamps=162.75
New "Linecode.15_2" nphases=2 basefreq=60 r1=2.6513 x1=2.0970 units=km normamps=162.75
New "Linecode.15_3" nphases=3 basefreq=60 r1=2.6513 x1=2.0970 units=km normamps=162.75
New "Linecode.15_4" nphases=4 basefreq=60 r1=2.6513 x1=2.0970 units=km normamps=162.75

New "Linecode.15_P_1" nphases=1 basefreq=60 r1=2.6513 x1=2.0970 units=km normamps=162.75
New "Linecode.15_P_2" nphases=2 basefreq=60 r1=2.6513 x1=2.0970 units=km normamps=162.75
New "Linecode.15_P_3" nphases=3 basefreq=60 r1=2.6513 x1=2.0970 units=km normamps=162.75
New "Linecode.15_P_4" nphases=4 basefreq=60 r1=2.6513 x1=2.0970 units=km normamps=162.75

New "Linecode.16_1" nphases=1 basefreq=60 r1=0.5340 x1=0.4186 units=km normamps=286.6499938964844
New "Linecode.16_2" nphases=2 basefreq=60 r1=0.5340 x1=0.4186 units=km normamps=286.6499938964844
New "Linecode.16_3" nphases=3 basefreq=60 r1=0.5340 x1=0.4186 units=km normamps=286.6499938964844
New "Linecode.16_4" nphases=4 basefreq=60 r1=0.5340 x1=0.4186 units=km normamps=286.6499938964844

New "Linecode.16_P_1" nphases=1 basefreq=60 r1=0.5340 x1=0.4186 units=km normamps=286.6499938964844
New "Linecode.16_P_2" nphases=2 basefreq=60 r1=0.5340 x1=0.4186 units=km normamps=286.6499938964844
New "Linecode.16_P_3" nphases=3 basefreq=60 r1=0.5340 x1=0.4186 units=km normamps=286.6499938964844
New "Linecode.16_P_4" nphases=4 basefreq=60 r1=0.5340 x1=0.4186 units=km normamps=286.6499938964844

New "Linecode.17_1" nphases=1 basefreq=60 r1=0.4243 x1=0.4100 units=km normamps=327.6000061035156
New "Linecode.17_2" nphases=2 basefreq=60 r1=0.4243 x1=0.4100 units=km normamps=327.6000061035156
New "Linecode.17_3" nphases=3 basefreq=60 r1=0.4243 x1=0.4100 units=km normamps=327.6000061035156
New "Linecode.17_4" nphases=4 basefreq=60 r1=0.4243 x1=0.4100 units=km normamps=327.6000061035156

New "Linecode.17_P_1" nphases=1 basefreq=60 r1=0.4243 x1=0.4100 units=km normamps=327.6000061035156
New "Linecode.17_P_2" nphases=2 basefreq=60 r1=0.4243 x1=0.4100 units=km normamps=327.6000061035156
New "Linecode.17_P_3" nphases=3 basefreq=60 r1=0.4243 x1=0.4100 units=km normamps=327.6000061035156
New "Linecode.17_P_4" nphases=4 basefreq=60 r1=0.4243 x1=0.4100 units=km normamps=327.6000061035156

New "Linecode.18_1" nphases=1 basefreq=60 r1=1.3526 x1=0.4537 units=km normamps=163.8000030517578
New "Linecode.18_2" nphases=2 basefreq=60 r1=1.3526 x1=0.4537 units=km normamps=163.8000030517578
New "Linecode.18_3" nphases=3 basefreq=60 r1=1.3526 x1=0.4537 units=km normamps=163.8000030517578
New "Linecode.18_4" nphases=4 basefreq=60 r1=1.3526 x1=0.4537 units=km normamps=163.8000030517578

New "Linecode.18_P_1" nphases=1 basefreq=60 r1=1.3526 x1=0.4537 units=km normamps=163.8000030517578
New "Linecode.18_P_2" nphases=2 basefreq=60 r1=1.3526 x1=0.4537 units=km normamps=163.8000030517578
New "Linecode.18_P_3" nphases=3 basefreq=60 r1=1.3526 x1=0.4537 units=km normamps=163.8000030517578
New "Linecode.18_P_4" nphases=4 basefreq=60 r1=1.3526 x1=0.4537 units=km normamps=163.8000030517578

New "Linecode.19_1" nphases=1 basefreq=60 r1=0.4243 x1=0.4100 units=km normamps=327.6000061035156
New "Linecode.19_2" nphases=2 basefreq=60 r1=0.4243 x1=0.4100 units=km normamps=327.6000061035156
New "Linecode.19_3" nphases=3 basefreq=60 r1=0.4243 x1=0.4100 units=km normamps=327.6000061035156
New "Linecode.19_4" nphases=4 basefreq=60 r1=0.4243 x1=0.4100 units=km normamps=327.6000061035156

New "Linecode.19_P_1" nphases=1 basefreq=60 r1=0.4243 x1=0.4100 units=km normamps=327.6000061035156
New "Linecode.19_P_2" nphases=2 basefreq=60 r1=0.4243 x1=0.4100 units=km normamps=327.6000061035156
New "Linecode.19_P_3" nphases=3 basefreq=60 r1=0.4243 x1=0.4100 units=km normamps=327.6000061035156
New "Linecode.19_P_4" nphases=4 basefreq=60 r1=0.4243 x1=0.4100 units=km normamps=327.6000061035156

New "Linecode.20_1" nphases=1 basefreq=60 r1=1.0770 x1=0.4550 units=km normamps=189.0
New "Linecode.20_2" nphases=2 basefreq=60 r1=1.0770 x1=0.4550 units=km normamps=189.0
New "Linecode.20_3" nphases=3 basefreq=60 r1=1.0770 x1=0.4550 units=km normamps=189.0
New "Linecode.20_4" nphases=4 basefreq=60 r1=1.0770 x1=0.4550 units=km normamps=189.0

New "Linecode.20_P_1" nphases=1 basefreq=60 r1=1.0770 x1=0.4550 units=km normamps=189.0
New "Linecode.20_P_2" nphases=2 basefreq=60 r1=1.0770 x1=0.4550 units=km normamps=189.0
New "Linecode.20_P_3" nphases=3 basefreq=60 r1=1.0770 x1=0.4550 units=km normamps=189.0
New "Linecode.20_P_4" nphases=4 basefreq=60 r1=1.0770 x1=0.4550 units=km normamps=189.0

New "Linecode.21_1" nphases=1 basefreq=60 r1=0.8500 x1=0.4362 units=km normamps=216.3000030517578
New "Linecode.21_2" nphases=2 basefreq=60 r1=0.8500 x1=0.4362 units=km normamps=216.3000030517578
New "Linecode.21_3" nphases=3 basefreq=60 r1=0.8500 x1=0.4362 units=km normamps=216.3000030517578
New "Linecode.21_4" nphases=4 basefreq=60 r1=0.8500 x1=0.4362 units=km normamps=216.3000030517578

New "Linecode.21_P_1" nphases=1 basefreq=60 r1=0.8500 x1=0.4362 units=km normamps=216.3000030517578
New "Linecode.21_P_2" nphases=2 basefreq=60 r1=0.8500 x1=0.4362 units=km normamps=216.3000030517578
New "Linecode.21_P_3" nphases=3 basefreq=60 r1=0.8500 x1=0.4362 units=km normamps=216.3000030517578
New "Linecode.21_P_4" nphases=4 basefreq=60 r1=0.8500 x1=0.4362 units=km normamps=216.3000030517578

New "Linecode.22_1" nphases=1 basefreq=60 r1=0.5682 x1=0.2920 units=km normamps=240.4499969482422
New "Linecode.22_2" nphases=2 basefreq=60 r1=0.5682 x1=0.2920 units=km normamps=240.4499969482422
New "Linecode.22_3" nphases=3 basefreq=60 r1=0.5682 x1=0.2920 units=km normamps=240.4499969482422
New "Linecode.22_4" nphases=4 basefreq=60 r1=0.5682 x1=0.2920 units=km normamps=240.4499969482422

New "Linecode.22_P_1" nphases=1 basefreq=60 r1=0.5682 x1=0.2920 units=km normamps=240.4499969482422
New "Linecode.22_P_2" nphases=2 basefreq=60 r1=0.5682 x1=0.2920 units=km normamps=240.4499969482422
New "Linecode.22_P_3" nphases=3 basefreq=60 r1=0.5682 x1=0.2920 units=km normamps=240.4499969482422
New "Linecode.22_P_4" nphases=4 basefreq=60 r1=0.5682 x1=0.2920 units=km normamps=240.4499969482422

New "Linecode.23_1" nphases=1 basefreq=60 r1=1.3526 x1=0.4537 units=km normamps=163.8000030517578
New "Linecode.23_2" nphases=2 basefreq=60 r1=1.3526 x1=0.4537 units=km normamps=163.8000030517578
New "Linecode.23_3" nphases=3 basefreq=60 r1=1.3526 x1=0.4537 units=km normamps=163.8000030517578
New "Linecode.23_4" nphases=4 basefreq=60 r1=1.3526 x1=0.4537 units=km normamps=163.8000030517578

New "Linecode.23_P_1" nphases=1 basefreq=60 r1=1.3526 x1=0.4537 units=km normamps=163.8000030517578
New "Linecode.23_P_2" nphases=2 basefreq=60 r1=1.3526 x1=0.4537 units=km normamps=163.8000030517578
New "Linecode.23_P_3" nphases=3 basefreq=60 r1=1.3526 x1=0.4537 units=km normamps=163.8000030517578
New "Linecode.23_P_4" nphases=4 basefreq=60 r1=1.3526 x1=0.4537 units=km normamps=163.8000030517578

New "Linecode.25_1" nphases=1 basefreq=60 r1=0.3364 x1=0.4012 units=km normamps=371.70001220703125
New "Linecode.25_2" nphases=2 basefreq=60 r1=0.3364 x1=0.4012 units=km normamps=371.70001220703125
New "Linecode.25_3" nphases=3 basefreq=60 r1=0.3364 x1=0.4012 units=km normamps=371.70001220703125
New "Linecode.25_4" nphases=4 basefreq=60 r1=0.3364 x1=0.4012 units=km normamps=371.70001220703125

New "Linecode.25_P_1" nphases=1 basefreq=60 r1=0.3364 x1=0.4012 units=km normamps=371.70001220703125
New "Linecode.25_P_2" nphases=2 basefreq=60 r1=0.3364 x1=0.4012 units=km normamps=371.70001220703125
New "Linecode.25_P_3" nphases=3 basefreq=60 r1=0.3364 x1=0.4012 units=km normamps=371.70001220703125
New "Linecode.25_P_4" nphases=4 basefreq=60 r1=0.3364 x1=0.4012 units=km normamps=371.70001220703125

New "Linecode.27_1" nphases=1 basefreq=60 r1=2.1532 x1=0.4712 units=km normamps=123.9000015258789
New "Linecode.27_2" nphases=2 basefreq=60 r1=2.1532 x1=0.4712 units=km normamps=123.9000015258789
New "Linecode.27_3" nphases=3 basefreq=60 r1=2.1532 x1=0.4712 units=km normamps=123.9000015258789
New "Linecode.27_4" nphases=4 basefreq=60 r1=2.1532 x1=0.4712 units=km normamps=123.9000015258789

New "Linecode.27_P_1" nphases=1 basefreq=60 r1=2.1532 x1=0.4712 units=km normamps=123.9000015258789
New "Linecode.27_P_2" nphases=2 basefreq=60 r1=2.1532 x1=0.4712 units=km normamps=123.9000015258789
New "Linecode.27_P_3" nphases=3 basefreq=60 r1=2.1532 x1=0.4712 units=km normamps=123.9000015258789
New "Linecode.27_P_4" nphases=4 basefreq=60 r1=2.1532 x1=0.4712 units=km normamps=123.9000015258789

New "Linecode.28_1" nphases=1 basefreq=60 r1=0.4243 x1=0.4100 units=km normamps=327.6000061035156
New "Linecode.28_2" nphases=2 basefreq=60 r1=0.4243 x1=0.4100 units=km normamps=327.6000061035156
New "Linecode.28_3" nphases=3 basefreq=60 r1=0.4243 x1=0.4100 units=km normamps=327.6000061035156
New "Linecode.28_4" nphases=4 basefreq=60 r1=0.4243 x1=0.4100 units=km normamps=327.6000061035156

New "Linecode.28_P_1" nphases=1 basefreq=60 r1=0.4243 x1=0.4100 units=km normamps=327.6000061035156
New "Linecode.28_P_2" nphases=2 basefreq=60 r1=0.4243 x1=0.4100 units=km normamps=327.6000061035156
New "Linecode.28_P_3" nphases=3 basefreq=60 r1=0.4243 x1=0.4100 units=km normamps=327.6000061035156
New "Linecode.28_P_4" nphases=4 basefreq=60 r1=0.4243 x1=0.4100 units=km normamps=327.6000061035156

New "Linecode.29_1" nphases=1 basefreq=60 r1=0.8500 x1=0.4362 units=km normamps=216.3000030517578
New "Linecode.29_2" nphases=2 basefreq=60 r1=0.8500 x1=0.4362 units=km normamps=216.3000030517578
New "Linecode.29_3" nphases=3 basefreq=60 r1=0.8500 x1=0.4362 units=km normamps=216.3000030517578
New "Linecode.29_4" nphases=4 basefreq=60 r1=0.8500 x1=0.4362 units=km normamps=216.3000030517578

New "Linecode.29_P_1" nphases=1 basefreq=60 r1=0.8500 x1=0.4362 units=km normamps=216.3000030517578
New "Linecode.29_P_2" nphases=2 basefreq=60 r1=0.8500 x1=0.4362 units=km normamps=216.3000030517578
New "Linecode.29_P_3" nphases=3 basefreq=60 r1=0.8500 x1=0.4362 units=km normamps=216.3000030517578
New "Linecode.29_P_4" nphases=4 basefreq=60 r1=0.8500 x1=0.4362 units=km normamps=216.3000030517578

New "Linecode.30_1" nphases=1 basefreq=60 r1=1.0770 x1=0.4550 units=km normamps=189.0
New "Linecode.30_2" nphases=2 basefreq=60 r1=1.0770 x1=0.4550 units=km normamps=189.0
New "Linecode.30_3" nphases=3 basefreq=60 r1=1.0770 x1=0.4550 units=km normamps=189.0
New "Linecode.30_4" nphases=4 basefreq=60 r1=1.0770 x1=0.4550 units=km normamps=189.0

New "Linecode.30_P_1" nphases=1 basefreq=60 r1=1.0770 x1=0.4550 units=km normamps=189.0
New "Linecode.30_P_2" nphases=2 basefreq=60 r1=1.0770 x1=0.4550 units=km normamps=189.0
New "Linecode.30_P_3" nphases=3 basefreq=60 r1=1.0770 x1=0.4550 units=km normamps=189.0
New "Linecode.30_P_4" nphases=4 basefreq=60 r1=1.0770 x1=0.4550 units=km normamps=189.0

New "Linecode.31_1" nphases=1 basefreq=60 r1=0.5682 x1=0.2920 units=km normamps=240.4499969482422
New "Linecode.31_2" nphases=2 basefreq=60 r1=0.5682 x1=0.2920 units=km normamps=240.4499969482422
New "Linecode.31_3" nphases=3 basefreq=60 r1=0.5682 x1=0.2920 units=km normamps=240.4499969482422
New "Linecode.31_4" nphases=4 basefreq=60 r1=0.5682 x1=0.2920 units=km normamps=240.4499969482422

New "Linecode.31_P_1" nphases=1 basefreq=60 r1=0.5682 x1=0.2920 units=km normamps=240.4499969482422
New "Linecode.31_P_2" nphases=2 basefreq=60 r1=0.5682 x1=0.2920 units=km normamps=240.4499969482422
New "Linecode.31_P_3" nphases=3 basefreq=60 r1=0.5682 x1=0.2920 units=km normamps=240.4499969482422
New "Linecode.31_P_4" nphases=4 basefreq=60 r1=0.5682 x1=0.2920 units=km normamps=240.4499969482422

New "Linecode.32_1" nphases=1 basefreq=60 r1=0.8500 x1=0.4362 units=km normamps=216.3000030517578
New "Linecode.32_2" nphases=2 basefreq=60 r1=0.8500 x1=0.4362 units=km normamps=216.3000030517578
New "Linecode.32_3" nphases=3 basefreq=60 r1=0.8500 x1=0.4362 units=km normamps=216.3000030517578
New "Linecode.32_4" nphases=4 basefreq=60 r1=0.8500 x1=0.4362 units=km normamps=216.3000030517578

New "Linecode.32_P_1" nphases=1 basefreq=60 r1=0.8500 x1=0.4362 units=km normamps=216.3000030517578
New "Linecode.32_P_2" nphases=2 basefreq=60 r1=0.8500 x1=0.4362 units=km normamps=216.3000030517578
New "Linecode.32_P_3" nphases=3 basefreq=60 r1=0.8500 x1=0.4362 units=km normamps=216.3000030517578
New "Linecode.32_P_4" nphases=4 basefreq=60 r1=0.8500 x1=0.4362 units=km normamps=216.3000030517578

New "Linecode.33_1" nphases=1 basefreq=60 r1=0.2667 x1=0.3925 units=km normamps=428.3999938964844
New "Linecode.33_2" nphases=2 basefreq=60 r1=0.2667 x1=0.3925 units=km normamps=428.3999938964844
New "Linecode.33_3" nphases=3 basefreq=60 r1=0.2667 x1=0.3925 units=km normamps=428.3999938964844
New "Linecode.33_4" nphases=4 basefreq=60 r1=0.2667 x1=0.3925 units=km normamps=428.3999938964844

New "Linecode.33_P_1" nphases=1 basefreq=60 r1=0.2667 x1=0.3925 units=km normamps=428.3999938964844
New "Linecode.33_P_2" nphases=2 basefreq=60 r1=0.2667 x1=0.3925 units=km normamps=428.3999938964844
New "Linecode.33_P_3" nphases=3 basefreq=60 r1=0.2667 x1=0.3925 units=km normamps=428.3999938964844
New "Linecode.33_P_4" nphases=4 basefreq=60 r1=0.2667 x1=0.3925 units=km normamps=428.3999938964844

New "Linecode.34_1" nphases=1 basefreq=60 r1=1.3593 x1=0.4638 units=km normamps=162.75
New "Linecode.34_2" nphases=2 basefreq=60 r1=1.3593 x1=0.4638 units=km normamps=162.75
New "Linecode.34_3" nphases=3 basefreq=60 r1=1.3593 x1=0.4638 units=km normamps=162.75
New "Linecode.34_4" nphases=4 basefreq=60 r1=1.3593 x1=0.4638 units=km normamps=162.75

New "Linecode.34_P_1" nphases=1 basefreq=60 r1=1.3593 x1=0.4638 units=km normamps=162.75
New "Linecode.34_P_2" nphases=2 basefreq=60 r1=1.3593 x1=0.4638 units=km normamps=162.75
New "Linecode.34_P_3" nphases=3 basefreq=60 r1=1.3593 x1=0.4638 units=km normamps=162.75
New "Linecode.34_P_4" nphases=4 basefreq=60 r1=1.3593 x1=0.4638 units=km normamps=162.75

New "Linecode.35_1" nphases=1 basefreq=60 r1=1.3526 x1=0.4537 units=km normamps=163.8000030517578
New "Linecode.35_2" nphases=2 basefreq=60 r1=1.3526 x1=0.4537 units=km normamps=163.8000030517578
New "Linecode.35_3" nphases=3 basefreq=60 r1=1.3526 x1=0.4537 units=km normamps=163.8000030517578
New "Linecode.35_4" nphases=4 basefreq=60 r1=1.3526 x1=0.4537 units=km normamps=163.8000030517578

New "Linecode.35_P_1" nphases=1 basefreq=60 r1=1.3526 x1=0.4537 units=km normamps=163.8000030517578
New "Linecode.35_P_2" nphases=2 basefreq=60 r1=1.3526 x1=0.4537 units=km normamps=163.8000030517578
New "Linecode.35_P_3" nphases=3 basefreq=60 r1=1.3526 x1=0.4537 units=km normamps=163.8000030517578
New "Linecode.35_P_4" nphases=4 basefreq=60 r1=1.3526 x1=0.4537 units=km normamps=163.8000030517578

New "Linecode.36_1" nphases=1 basefreq=60 r1=0.2667 x1=0.3925 units=km normamps=428.3999938964844
New "Linecode.36_2" nphases=2 basefreq=60 r1=0.2667 x1=0.3925 units=km normamps=428.3999938964844
New "Linecode.36_3" nphases=3 basefreq=60 r1=0.2667 x1=0.3925 units=km normamps=428.3999938964844
New "Linecode.36_4" nphases=4 basefreq=60 r1=0.2667 x1=0.3925 units=km normamps=428.3999938964844

New "Linecode.36_P_1" nphases=1 basefreq=60 r1=0.2667 x1=0.3925 units=km normamps=428.3999938964844
New "Linecode.36_P_2" nphases=2 basefreq=60 r1=0.2667 x1=0.3925 units=km normamps=428.3999938964844
New "Linecode.36_P_3" nphases=3 basefreq=60 r1=0.2667 x1=0.3925 units=km normamps=428.3999938964844
New "Linecode.36_P_4" nphases=4 basefreq=60 r1=0.2667 x1=0.3925 units=km normamps=428.3999938964844

New "Linecode.37_1" nphases=1 basefreq=60 r1=1.0714 x1=0.4449 units=km normamps=190.0500030517578
New "Linecode.37_2" nphases=2 basefreq=60 r1=1.0714 x1=0.4449 units=km normamps=190.0500030517578
New "Linecode.37_3" nphases=3 basefreq=60 r1=1.0714 x1=0.4449 units=km normamps=190.0500030517578
New "Linecode.37_4" nphases=4 basefreq=60 r1=1.0714 x1=0.4449 units=km normamps=190.0500030517578

New "Linecode.37_P_1" nphases=1 basefreq=60 r1=1.0714 x1=0.4449 units=km normamps=190.0500030517578
New "Linecode.37_P_2" nphases=2 basefreq=60 r1=1.0714 x1=0.4449 units=km normamps=190.0500030517578
New "Linecode.37_P_3" nphases=3 basefreq=60 r1=1.0714 x1=0.4449 units=km normamps=190.0500030517578
New "Linecode.37_P_4" nphases=4 basefreq=60 r1=1.0714 x1=0.4449 units=km normamps=190.0500030517578

New "Linecode.38_1" nphases=1 basefreq=60 r1=0.2530 x1=0.0916 units=km normamps=346.5
New "Linecode.38_2" nphases=2 basefreq=60 r1=0.2530 x1=0.0916 units=km normamps=346.5
New "Linecode.38_3" nphases=3 basefreq=60 r1=0.2530 x1=0.0916 units=km normamps=346.5
New "Linecode.38_4" nphases=4 basefreq=60 r1=0.2530 x1=0.0916 units=km normamps=346.5

New "Linecode.38_P_1" nphases=1 basefreq=60 r1=0.2530 x1=0.0916 units=km normamps=346.5
New "Linecode.38_P_2" nphases=2 basefreq=60 r1=0.2530 x1=0.0916 units=km normamps=346.5
New "Linecode.38_P_3" nphases=3 basefreq=60 r1=0.2530 x1=0.0916 units=km normamps=346.5
New "Linecode.38_P_4" nphases=4 basefreq=60 r1=0.2530 x1=0.0916 units=km normamps=346.5

New "Linecode.39_1" nphases=1 basefreq=60 r1=1.3593 x1=0.4638 units=km normamps=162.75
New "Linecode.39_2" nphases=2 basefreq=60 r1=1.3593 x1=0.4638 units=km normamps=162.75
New "Linecode.39_3" nphases=3 basefreq=60 r1=1.3593 x1=0.4638 units=km normamps=162.75
New "Linecode.39_4" nphases=4 basefreq=60 r1=1.3593 x1=0.4638 units=km normamps=162.75

New "Linecode.39_P_1" nphases=1 basefreq=60 r1=1.3593 x1=0.4638 units=km normamps=162.75
New "Linecode.39_P_2" nphases=2 basefreq=60 r1=1.3593 x1=0.4638 units=km normamps=162.75
New "Linecode.39_P_3" nphases=3 basefreq=60 r1=1.3593 x1=0.4638 units=km normamps=162.75
New "Linecode.39_P_4" nphases=4 basefreq=60 r1=1.3593 x1=0.4638 units=km normamps=162.75

New "Linecode.40_1" nphases=1 basefreq=60 r1=0.3240 x1=0.3120 units=km normamps=330.0
New "Linecode.40_2" nphases=2 basefreq=60 r1=0.3240 x1=0.3120 units=km normamps=330.0
New "Linecode.40_3" nphases=3 basefreq=60 r1=0.3240 x1=0.3120 units=km normamps=330.0
New "Linecode.40_4" nphases=4 basefreq=60 r1=0.3240 x1=0.3120 units=km normamps=330.0

New "Linecode.40_P_1" nphases=1 basefreq=60 r1=0.3240 x1=0.3120 units=km normamps=330.0
New "Linecode.40_P_2" nphases=2 basefreq=60 r1=0.3240 x1=0.3120 units=km normamps=330.0
New "Linecode.40_P_3" nphases=3 basefreq=60 r1=0.3240 x1=0.3120 units=km normamps=330.0
New "Linecode.40_P_4" nphases=4 basefreq=60 r1=0.3240 x1=0.3120 units=km normamps=330.0

New "Linecode.41_1" nphases=1 basefreq=60 r1=2.1532 x1=0.4712 units=km normamps=123.9000015258789
New "Linecode.41_2" nphases=2 basefreq=60 r1=2.1532 x1=0.4712 units=km normamps=123.9000015258789
New "Linecode.41_3" nphases=3 basefreq=60 r1=2.1532 x1=0.4712 units=km normamps=123.9000015258789
New "Linecode.41_4" nphases=4 basefreq=60 r1=2.1532 x1=0.4712 units=km normamps=123.9000015258789

New "Linecode.41_P_1" nphases=1 basefreq=60 r1=2.1532 x1=0.4712 units=km normamps=123.9000015258789
New "Linecode.41_P_2" nphases=2 basefreq=60 r1=2.1532 x1=0.4712 units=km normamps=123.9000015258789
New "Linecode.41_P_3" nphases=3 basefreq=60 r1=2.1532 x1=0.4712 units=km normamps=123.9000015258789
New "Linecode.41_P_4" nphases=4 basefreq=60 r1=2.1532 x1=0.4712 units=km normamps=123.9000015258789

New "Linecode.44_1" nphases=1 basefreq=60 r1=1.3526 x1=0.4537 units=km normamps=163.8000030517578
New "Linecode.44_2" nphases=2 basefreq=60 r1=1.3526 x1=0.4537 units=km normamps=163.8000030517578
New "Linecode.44_3" nphases=3 basefreq=60 r1=1.3526 x1=0.4537 units=km normamps=163.8000030517578
New "Linecode.44_4" nphases=4 basefreq=60 r1=1.3526 x1=0.4537 units=km normamps=163.8000030517578

New "Linecode.44_P_1" nphases=1 basefreq=60 r1=1.3526 x1=0.4537 units=km normamps=163.8000030517578
New "Linecode.44_P_2" nphases=2 basefreq=60 r1=1.3526 x1=0.4537 units=km normamps=163.8000030517578
New "Linecode.44_P_3" nphases=3 basefreq=60 r1=1.3526 x1=0.4537 units=km normamps=163.8000030517578
New "Linecode.44_P_4" nphases=4 basefreq=60 r1=1.3526 x1=0.4537 units=km normamps=163.8000030517578

New "Linecode.45_1" nphases=1 basefreq=60 r1=1.3526 x1=0.4537 units=km normamps=163.8000030517578
New "Linecode.45_2" nphases=2 basefreq=60 r1=1.3526 x1=0.4537 units=km normamps=163.8000030517578
New "Linecode.45_3" nphases=3 basefreq=60 r1=1.3526 x1=0.4537 units=km normamps=163.8000030517578
New "Linecode.45_4" nphases=4 basefreq=60 r1=1.3526 x1=0.4537 units=km normamps=163.8000030517578

New "Linecode.45_P_1" nphases=1 basefreq=60 r1=1.3526 x1=0.4537 units=km normamps=163.8000030517578