New "Line.CBT_34706" phases=2 bus1="BT59481.1.2.4" bus2="BT59502.1.2.4" linecode="_" length=0.00100 units=km
New "Line.CBT_34707" phases=2 bus1="BT59502.1.2.4" bus2="BT804551.1.2.4" linecode="_" length=0.00100 units=km
New "Line.CBT_34708" phases=2 bus1="BT804551.1.2.4" bus2="BT74621.1.2.4" linecode="_" length=0.00100 units=km
New "Line.CBT_34168" phases=2 bus1="BT797871.1.2.4" bus2="ET28_6194.1.2.4" linecode="_" length=0.00100 units=km
New "Line.CBT_34169" phases=2 bus1="BT797881.1.2.4" bus2="BT797871.1.2.4" linecode="_" length=0.00100 units=km
New "Line.CBT_33829" phases=1 bus1="BT60391.1.4" bus2="BT636111.1.4" linecode="_" length=0.00100 units=km
New "Line.CBT_33830" phases=2 bus1="BT60392.1.2.4" bus2="BT60381.1.2.4" linecode="_" length=0.00100 units=km
New "Line.CBT_33831" phases=1 bus1="BT636111.1.4" bus2="BT795201.1.4" linecode="_" length=0.00100 units=km
New "Line.CBT_33832" phases=1 bus1="BT795201.1.4" bus2="ET28_6155.1.4" linecode="_" length=0.00100 units=km
New "Line.CBT_33659" phases=3 bus1="BT793451.1.2.3.4" bus2="ET28_6095.1.2.3.4" linecode="_" length=0.00100 units=km
New "Line.CBT_33637" phases=3 bus1="BT793221.1.2.3.4" bus2="ET28_6018.1.2.3.4" linecode="_" length=0.00100 units=km
New "Line.CBT_33323" phases=2 bus1="BT42911.1.2.4" bus2="ET28_6069.1.2.4" linecode="_" length=0.00100 units=km
New "Line.CBT_33325" phases=2 bus1="BT42932.1.2.4" bus2="ET28_6069.1.2.4" linecode="_" length=0.00100 units=km
New "Line.CBT_33326" phases=1 bus1="BT440681.1.4" bus2="BT42932.1.4" linecode="_" length=0.00100 units=km
New "Line.CBT_33268" phases=1 bus1="BT790251.1.4" bus2="ET28_5757.1.4" linecode="_" length=0.00100 units=km
New "Line.CBT_33081" phases=2 bus1="BT47191.1.2.4" bus2="BT47201.1.2.4" linecode="_" length=0.00100 units=km
New "Line.CBT_32313" phases=2 bus1="BT141511.1.2.4" bus2="BT779041.1.2.4" linecode="_" length=0.00100 units=km
New "Line.CBT_32312" phases=2 bus1="BT652841.1.2.4" bus2="BT685271.1.2.4" linecode="_" length=0.00100 units=km
New "Line.CBT_31968" phases=2 bus1="BT774141.1.2.4" bus2="BT736161.1.2.4" linecode="_" length=0.00100 units=km
New "Line.CBT_31974" phases=1 bus1="BT774201.1.4" bus2="ET28_5756.1.4" linecode="_" length=0.00100 units=km
New "Line.CBT_31144" phases=3 bus1="BT60852.1.2.3.4" bus2="ET28_1990.1.2.3.4" linecode="_" length=0.00100 units=km
New "Line.CBT_30827" phases=2 bus1="BT47882.1.2.4" bus2="ET28_1993.1.2.4" linecode="_" length=0.00100 units=km
New "Line.CBT_11502" phases=2 bus1="BT43841.1.2.4" bus2="BT43831.1.2.4" linecode="_" length=0.00100 units=km
New "Line.CBT_14551" phases=3 bus1="BT493021.1.2.3.4" bus2="ET28_3960.1.2.3.4" linecode="_" length=0.00100 units=km
New "Line.CBT_29893" phases=3 bus1="BT756031.1.2.3.4" bus2="ET28_5398.1.2.3.4" linecode="_" length=0.00100 units=km
New "Line.CBT_29611" phases=1 bus1="BT59371.1.4" bus2="BT753801.1.4" linecode="_" length=0.00100 units=km
New "Line.CBT_29614" phases=3 bus1="BT753901.1.2.3.4" bus2="BT28051.1.2.3.4" linecode="_" length=0.00100 units=km
New "Line.CBT_29613" phases=3 bus1="BT753881.1.2.3.4" bus2="ET28_2706.1.2.3.4" linecode="_" length=0.00100 units=km
New "Line.CBT_29608" phases=3 bus1="BT753801.1.2.3.4" bus2="ET28_5168.1.2.3.4" linecode="_" length=0.00100 units=km
New "Line.CBT_29609" phases=3 bus1="BT753811.1.2.3.4" bus2="BT753801.1.2.3.4" linecode="_" length=0.00100 units=km
New "Line.CBT_29610" phases=3 bus1="BT753821.1.2.3.4" bus2="BT753811.1.2.3.4" linecode="_" length=0.00100 units=km
New "Line.CBT_11593" phases=2 bus1="BT135761.1.2.4" bus2="ET28_1173.1.2.4" linecode="_" length=0.00100 units=km
New "Line.CBT_29548" phases=2 bus1="BT135791.1.2.4" bus2="BT752461.1.2.4" linecode="_" length=0.00100 units=km
New "Line.CBT_29550" phases=3 bus1="BT752481.1.2.3.4" bus2="ET28_5616.1.2.3.4" linecode="_" length=0.00100 units=km
New "Line.CBT_29551" phases=3 bus1="BT752491.1.2.3.4" bus2="BT752481.1.2.3.4" linecode="_" length=0.00100 units=km
New "Line.CBT_27350" phases=2 bus1="BT664021.1.2.4" bus2="ET28_4544.1.2.4" linecode="_" length=0.00100 units=km
New "Line.CBT_24928" phases=3 bus1="BT60841.1.2.3.4" bus2="BT363381.1.2.3.4" linecode="_" length=0.00100 units=km
New "Line.CBT_26271" phases=1 bus1="BT606871.2.4" bus2="ET28_3397.2.4" linecode="_" length=0.00100 units=km
New "Line.CBT_27327" phases=2 bus1="BT628321.1.2.4" bus2="ET28_3047.1.2.4" linecode="_" length=0.00100 units=km
New "Line.CBT_18185" phases=2 bus1="BT12991.1.2.4" bus2="BT13021.1.2.4" linecode="_" length=0.00100 units=km
New "Line.CBT_18016" phases=1 bus1="BT13041.1.4" bus2="ET28_700.1.4" linecode="_" length=0.00100 units=km
New "Line.CBT_18025" phases=1 bus1="BT690151.1.4" bus2="BT392751.1.4" linecode="_" length=0.00100 units=km
New "Line.CBT_16441" phases=2 bus1="BT340741.1.2.4" bus2="ET28_4444.1.2.4" linecode="_" length=0.00100 units=km
New "Line.CBT_15582" phases=1 bus1="BT664001.1.4" bus2="BT649241.1.4" linecode="_" length=0.00100 units=km
New "Line.CBT_15540" phases=1 bus1="BT135701.1.4" bus2="ET28_5100.1.4" linecode="_" length=0.00100 units=km
New "Line.CBT_15227" phases=3 bus1="BT497151.1.2.3.4" bus2="BT497161.1.2.3.4" linecode="_" length=0.00100 units=km
New "Line.CBT_14734" phases=2 bus1="BT685271.1.2.4" bus2="ET28_2805.1.2.4" linecode="_" length=0.00100 units=km
New "Line.CBT_14399" phases=1 bus1="BT563641.1.4" bus2="BT563631.1.4" linecode="_" length=0.00100 units=km
New "Line.CBT_12099" phases=3 bus1="BT330861.1.2.3.4" bus2="BT330851.1.2.3.4" linecode="_" length=0.00100 units=km
New "Line.CBT_12480" phases=3 bus1="BT28051.1.2.3.4" bus2="BT753881.1.2.3.4" linecode="_" length=0.00100 units=km
New "Line.CBT_11473" phases=2 bus1="BT47011.1.2.4" bus2="BT47001.1.2.4" linecode="_" length=0.00100 units=km
New "Line.CBT_11595" phases=2 bus1="BT752461.1.2.4" bus2="BT135761.1.2.4" linecode="_" length=0.00100 units=km
New "Line.CBT_11782" phases=2 bus1="BT328731.1.2.4" bus2="BT328721.1.2.4" linecode="_" length=0.00100 units=km
New "Line.CBT_11167" phases=2 bus1="BT142391.1.2.4" bus2="BT142411.1.2.4" linecode="_" length=0.00100 units=km
New "Line.CBT_11250" phases=3 bus1="BT363381.1.2.3.4" bus2="ET28_1990.1.2.3.4" linecode="_" length=0.00100 units=km
New "Line.CBT_10984" phases=2 bus1="BT108541.1.2.4" bus2="BT108531.1.2.4" linecode="_" length=0.00100 units=km
New "Line.CBT_11027" phases=3 bus1="BT513221.1.2.3.4" bus2="BT513211.1.2.3.4" linecode="_" length=0.00100 units=km
New "Line.CBT_11159" phases=2 bus1="BT54631.1.2.4" bus2="ET28_778.1.2.4" linecode="_" length=0.00100 units=km
New "Line.CBT_10438" phases=2 bus1="BT21181.1.2.4" bus2="ET28_654.1.2.4" linecode="_" length=0.00100 units=km
New "Line.CBT_10450" phases=1 bus1="BT17091.1.4" bus2="BT17081.1.4" linecode="_" length=0.00100 units=km
New "Line.CBT_10085" phases=2 bus1="BT34021.1.2.4" bus2="BT34031.1.2.4" linecode="_" length=0.00100 units=km
New "Line.CBT_29050" phases=1 bus1="BT54601.1.4" bus2="BT54591.1.4" linecode="_" length=0.00100 units=km
New "Line.CBT_28895" phases=3 bus1="BT60831.1.2.3.4" bus2="BT60841.1.2.3.4" linecode="_" length=0.00100 units=km
New "Line.CBT_28902" phases=2 bus1="BT628301.1.2.4" bus2="ET28_3047.1.2.4" linecode="_" length=0.00100 units=km
New "Line.CBT_28875" phases=2 bus1="BT595521.1.2.4" bus2="ET28_2304.1.2.4" linecode="_" length=0.00100 units=km
New "Line.CBT_28722" phases=2 bus1="BT109181.1.2.4" bus2="BT109171.1.2.4" linecode="_" length=0.00100 units=km
New "Line.CBT_28673" phases=1 bus1="BT38781.1.4" bus2="BT38771.1.4" linecode="_" length=0.00100 units=km
New "Line.CBT_28605" phases=2 bus1="BT142251.1.2.4" bus2="ET28_5258.1.2.4" linecode="_" length=0.00100 units=km
New "Line.CBT_28506" phases=2 bus1="BT736161.1.2.4" bus2="BT736151.1.2.4" linecode="_" length=0.00100 units=km
New "Line.CBT_28455" phases=1 bus1="BT731651.2.4" bus2="ET28_5100.2.4" linecode="_" length=0.00100 units=km
New "Line.CBT_28460" phases=1 bus1="BT732571.1.4" bus2="BT510451.1.4" linecode="_" length=0.00100 units=km
New "Line.CBT_28461" phases=1 bus1="BT732621.1.4" bus2="BT60371.1.4" linecode="_" length=0.00100 units=km
New "Line.CBT_28414" phases=3 bus1="BT689851.1.2.3.4" bus2="ET28_5513.1.2.3.4" linecode="_" length=0.00100 units=km
New "Line.CBT_28097" phases=1 bus1="BT724321.1.4" bus2="ET28_4805.1.4" linecode="_" length=0.00100 units=km
New "Line.CBT_27842" phases=2 bus1="BT668121.1.2.4" bus2="ET28_4506.1.2.4" linecode="_" length=0.00100 units=km
New "Line.CBT_27798" phases=2 bus1="BT117781.1.2.4" bus2="ET28_4444.1.2.4" linecode="_" length=0.00100 units=km
New "Line.CBT_27799" phases=2 bus1="BT340731.1.2.4" bus2="BT340721.1.2.4" linecode="_" length=0.00100 units=km
New "Line.CBT_27678" phases=2 bus1="BT201821.1.2.4" bus2="ET28_1932.1.2.4" linecode="_" length=0.00100 units=km
New "Line.CBT_27665" phases=1 bus1="BT43791.1.4" bus2="BT43801.1.4" linecode="_" length=0.00100 units=km
New "Line.CBT_27559" phases=2 bus1="BT719531.1.2.4" bus2="BT719521.1.2.4" linecode="_" length=0.00100 units=km
New "Line.CBT_27348" phases=2 bus1="BT47952.1.2.4" bus2="ET28_4271.1.2.4" linecode="_" length=0.00100 units=km
New "Line.CBT_27349" phases=1 bus1="BT53541.1.4" bus2="BT53531.1.4" linecode="_" length=0.00100 units=km
New "Line.CBT_27351" phases=2 bus1="BT664101.1.2.4" bus2="BT27981.1.2.4" linecode="_" length=0.00100 units=km
New "Line.CBT_27316" phases=2 bus1="BT593901.1.2.4" bus2="BT417991.1.2.4" linecode="_" length=0.00100 units=km
New "Line.CBT_27317" phases=1 bus1="BT649241.1.4" bus2="BT649231.1.4" linecode="_" length=0.00100 units=km
New "Line.CBT_27318" phases=1 bus1="BT21281.1.4" bus2="ET28_4270.1.4" linecode="_" length=0.00100 units=km
New "Line.CBT_27123" phases=1 bus1="BT497101.1.4" bus2="BT497091.1.4" linecode="_" length=0.00100 units=km
New "Line.CBT_27124" phases=3 bus1="BT60851.1.2.3.4" bus2="BT497151.1.2.3.4" linecode="_" length=0.00100 units=km
New "Line.CBT_27125" phases=3 bus1="BT506831.1.2.3.4" bus2="BT506561.1.2.3.4" linecode="_" length=0.00100 units=km
New "Line.CBT_27122" phases=2 bus1="BT497071.1.2.4" bus2="ET28_3311.1.2.4" linecode="_" length=0.00100 units=km
New "Line.CBT_26851" phases=1 bus1="BT53711.1.4" bus2="ET28_4042.1.4" linecode="_" length=0.00100 units=km
New "Line.CBT_26644" phases=2 bus1="BT563601.1.2.4" bus2="BT43041.1.2.4" linecode="_" length=0.00100 units=km
New "Line.CBT_26469" phases=1 bus1="BT622611.1.4" bus2="BT141511.1.4" linecode="_" length=0.00100 units=km
New "Line.CBT_26360" phases=1 bus1="BT604481.1.4" bus2="BT60521.1.4" linecode="_" length=0.00100 units=km
New "Line.CBT_26356" phases=2 bus1="BT628311.1.2.4" bus2="BT628301.1.2.4" linecode="_" length=0.00100 units=km
New "Line.CBT_26011" phases=1 bus1="BT583051.1.4" bus2="BT364541.1.4" linecode="_" length=0.00100 units=km
New "Line.CBT_25910" phases=2 bus1="BT59341.1.2.4" bus2="ET28_636.1.2.4" linecode="_" length=0.00100 units=km
New "Line.CBT_25726" phases=1 bus1="BT21.1.4" bus2="BT11.1.4" linecode="_" length=0.00100 units=km
New "Line.CBT_25645" phases=2 bus1="BT60511.1.2.4" bus2="ET28_634.1.2.4" linecode="_" length=0.00100 units=km
New "Line.CBT_25646" phases=2 bus1="BT60531.1.2.4" bus2="BT737841.1.2.4" linecode="_" length=0.00100 units=km
New "Line.CBT_25632" phases=1 bus1="BT42791.1.4" bus2="BT325711.1.4" linecode="_" length=0.00100 units=km
New "Line.CBT_25640" phases=2 bus1="BT11.1.2.4" bus2="ET28_633.1.2.4" linecode="_" length=0.00100 units=km
New "Line.CBT_25599" phases=2 bus1="BT15271.1.2.4" bus2="BT15261.1.2.4" linecode="_" length=0.00100 units=km
New "Line.CBT_25607" phases=2 bus1="BT326631.1.2.4" bus2="ET28_2790.1.2.4" linecode="_" length=0.00100 units=km
New "Line.CBT_25608" phases=1 bus1="BT47211.1.4" bus2="ET28_2791.1.4" linecode="_" length=0.00100 units=km
New "Line.CBT_25609" phases=1 bus1="BT53731.1.4" bus2="BT47211.1.4" linecode="_" length=0.00100 units=km
New "Line.CBT_25610" phases=3 bus1="BT330851.1.2.3.4" bus2="BT493021.1.2.3.4" linecode="_" length=0.00100 units=km
New "Line.CBT_25614" phases=1 bus1="BT3051.2.4" bus2="BT3041.2.4" linecode="_" length=0.00100 units=km
New "Line.CBT_25531" phases=2 bus1="BT27991.1.2.4" bus2="BT664101.1.2.4" linecode="_" length=0.00100 units=km
New "Line.CBT_25535" phases=1 bus1="BT378171.2.4" bus2="ET28_2805.2.4" linecode="_" length=0.00100 units=km
New "Line.CBT_25508" phases=1 bus1="BT148121.2.4" bus2="BT109941.2.4" linecode="_" length=0.00100 units=km
New "Line.CBT_25514" phases=2 bus1="BT14421.1.2.4" bus2="ET28_635.1.2.4" linecode="_" length=0.00100 units=km
New "Line.CBT_25515" phases=2 bus1="BT14381.1.2.4" bus2="ET28_635.1.2.4" linecode="_" length=0.00100 units=km
New "Line.CBT_25425" phases=2 bus1="BT14391.1.2.4" bus2="BT14381.1.2.4" linecode="_" length=0.00100 units=km
New "Line.CBT_25426" phases=2 bus1="BT14451.1.2.4" bus2="BT14441.1.2.4" linecode="_" length=0.00100 units=km
New "Line.CBT_25434" phases=1 bus1="BT13111.2.4" bus2="BT13091.2.4" linecode="_" length=0.00100 units=km
New "Line.CBT_25435" phases=2 bus1="BT42941.1.2.4" bus2="ET28_2316.1.2.4" linecode="_" length=0.00100 units=km
New "Line.CBT_25445" phases=2 bus1="BT14411.1.2.4" bus2="BT14391.1.2.4" linecode="_" length=0.00100 units=km
New "Line.CBT_25399" phases=1 bus1="BT142291.2.4" bus2="BT142281.2.4" linecode="_" length=0.00100 units=km
New "Line.CBT_25400" phases=3 bus1="BT330871.1.2.3.4" bus2="BT330861.1.2.3.4" linecode="_" length=0.00100 units=km
New "Line.CBT_25401" phases=2 bus1="BT110091.1.2.4" bus2="ET28_2303.1.2.4" linecode="_" length=0.00100 units=km
New "Line.CBT_25409" phases=2 bus1="BT13101.1.2.4" bus2="BT13091.1.2.4" linecode="_" length=0.00100 units=km
New "Line.CBT_25414" phases=1 bus1="BT110021.1.4" bus2="BT110011.1.4" linecode="_" length=0.00100 units=km
New "Line.CBT_25417" phases=1 bus1="BT27461.1.4" bus2="BT1821.1.4" linecode="_" length=0.00100 units=km
New "Line.CBT_25421" phases=1 bus1="BT110081.1.4" bus2="ET28_2303.1.4" linecode="_" length=0.00100 units=km
New "Line.CBT_25387" phases=1 bus1="BT378201.1.4" bus2="BT141511.1.4" linecode="_" length=0.00100 units=km
New "Line.CBT_25391" phases=1 bus1="BT142341.2.4" bus2="BT142331.2.4" linecode="_" length=0.00100 units=km
New "Line.CBT_25392" phases=1 bus1="BT425931.2.4" bus2="BT142351.2.4" linecode="_" length=0.00100 units=km
New "Line.CBT_25393" phases=1 bus1="BT142261.2.4" bus2="BT142251.2.4" linecode="_" length=0.00100 units=km
New "Line.CBT_25394" phases=2 bus1="BT134821.1.2.4" bus2="ET28_2247.1.2.4" linecode="_" length=0.00100 units=km
New "Line.CBT_25325" phases=1 bus1="BT303891.2.4" bus2="BT31591.2.4" linecode="_" length=0.00100 units=km
New "Line.CBT_25332" phases=2 bus1="BT14351.1.2.4" bus2="BT14361.1.2.4" linecode="_" length=0.00100 units=km
New "Line.CBT_25256" phases=2 bus1="BT109141.1.2.4" bus2="BT109151.1.2.4" linecode="_" length=0.00100 units=km
New "Line.CBT_25258" phases=1 bus1="BT110182.1.4" bus2="BT110191.1.4" linecode="_" length=0.00100 units=km
New "Line.CBT_25260" phases=1 bus1="BT21282.1.4" bus2="BT21301.1.4" linecode="_" length=0.00100 units=km
New "Line.CBT_25261" phases=2 bus1="BT53681.1.2.4" bus2="ET28_628.1.2.4" linecode="_" length=0.00100 units=km
New "Line.CBT_25239" phases=2 bus1="BT16931.1.2.4" bus2="ET28_1946.1.2.4" linecode="_" length=0.00100 units=km
New "Line.CBT_25240" phases=1 bus1="BT13051.1.4" bus2="BT13041.1.4" linecode="_" length=0.00100 units=km
New "Line.CBT_25245" phases=1 bus1="BT135581.1.4" bus2="BT134841.1.4" linecode="_" length=0.00100 units=km
New "Line.CBT_25217" phases=2 bus1="BT56481.1.2.4" bus2="ET28_1829.1.2.4" linecode="_" length=0.00100 units=km
New "Line.CBT_25218" phases=2 bus1="BT328721.1.2.4" bus2="BT328711.1.2.4" linecode="_" length=0.00100 units=km
New "Line.CBT_25219" phases=2 bus1="BT109151.1.2.4" bus2="ET28_1932.1.2.4" linecode="_" length=0.00100 units=km
New "Line.CBT_25128" phases=2 bus1="BT360861.1.2.4" bus2="ET28_700.1.2.4" linecode="_" length=0.00100 units=km
New "Line.CBT_25138" phases=1 bus1="BT359371.1.4" bus2="BT38651.1.4" linecode="_" length=0.00100 units=km
New "Line.CBT_25139" phases=2 bus1="BT12381.1.2.4" bus2="ET28_701.1.2.4" linecode="_" length=0.00100 units=km
New "Line.CBT_25140" phases=2 bus1="BT12361.1.2.4" bus2="ET28_701.1.2.4" linecode="_" length=0.00100 units=km
New "Line.CBT_25141" phases=2 bus1="BT38831.1.2.4" bus2="BT12361.1.2.4" linecode="_" length=0.00100 units=km
New "Line.CBT_25101" phases=2 bus1="BT43741.1.2.4" bus2="BT43041.1.2.4" linecode="_" length=0.00100 units=km
New "Line.CBT_25102" phases=1 bus1="BT326271.1.4" bus2="BT3091.1.4" linecode="_" length=0.00100 units=km
New "Line.CBT_25106" phases=2 bus1="BT134841.1.2.4" bus2="BT134832.1.2.4" linecode="_" length=0.00100 units=km
New "Line.CBT_25107" phases=2 bus1="BT135591.1.2.4" bus2="BT135601.1.2.4" linecode="_" length=0.00100 units=km
New "Line.CBT_25113" phases=1 bus1="BT72531.1.4" bus2="BT72521.1.4" linecode="_" length=0.00100 units=km
New "Line.CBT_25117" phases=1 bus1="BT55601.2.4" bus2="ET28_1044.2.4" linecode="_" length=0.00100 units=km
New "Line.CBT_25118" phases=1 bus1="BT320181.2.4" bus2="ET28_1044.2.4" linecode="_" length=0.00100 units=km
New "Line.CBT_25077" phases=1 bus1="BT54671.1.4" bus2="BT54661.1.4" linecode="_" length=0.00100 units=km
New "Line.CBT_25080" phases=1 bus1="BT27921.1.4" bus2="BT27291.1.4" linecode="_" length=0.00100 units=km
New "Line.CBT_25081" phases=3 bus1="BT15181.1.2.3.4" bus2="ET28_626.1.2.3.4" linecode="_" length=0.00100 units=km
New "Line.CBT_25082" phases=3 bus1="BT15141.1.2.3.4" bus2="BT15181.1.2.3.4" linecode="_" length=0.00100 units=km
New "Line.CBT_25083" phases=3 bus1="BT15151.1.2.3.4" bus2="BT15141.1.2.3.4" linecode="_" length=0.00100 units=km
New "Line.CBT_25084" phases=1 bus1="BT373991.2.4" bus2="BT373981.2.4" linecode="_" length=0.00100 units=km
New "Line.CBT_25091" phases=1 bus1="BT2961.1.4" bus2="BT2951.1.4" linecode="_" length=0.00100 units=km
New "Line.CBT_25096" phases=2 bus1="BT881.1.2.4" bus2="ET28_1751.1.2.4" linecode="_" length=0.00100 units=km
New "Line.CBT_25097" phases=2 bus1="BT60361.1.2.4" bus2="ET28_1751.1.2.4" linecode="_" length=0.00100 units=km
New "Line.CBT_25047" phases=2 bus1="BT47001.1.2.4" bus2="ET28_640.1.2.4" linecode="_" length=0.00100 units=km
New "Line.CBT_25061" phases=3 bus1="BT451791.1.2.3.4" bus2="BT325631.1.2.3.4" linecode="_" length=0.00100 units=km
New "Line.CBT_25064" phases=2 bus1="BT2941.1.2.4" bus2="ET28_630.1.2.4" linecode="_" length=0.00100 units=km
New "Line.CBT_25065" phases=2 bus1="BT2951.1.2.4" bus2="BT2941.1.2.4" linecode="_" length=0.00100 units=km
New "Line.CBT_25024" phases=2 bus1="BT135702.1.2.4" bus2="BT135691.1.2.4" linecode="_" length=0.00100 units=km
New "Line.CBT_25037" phases=1 bus1="BT60921.1.4" bus2="BT60911.1.4" linecode="_" length=0.00100 units=km
New "Line.CBT_25038" phases=3 bus1="BT60891.1.2.3.4" bus2="ET28_5257.1.2.3.4" linecode="_" length=0.00100 units=km
New "Line.CBT_25001" phases=1 bus1="BT349691.1.4" bus2="BT135711.1.4" linecode="_" length=0.00100 units=km
New "Line.CBT_25008" phases=3 bus1="BT15201.1.2.3.4" bus2="ET28_626.1.2.3.4" linecode="_" length=0.00100 units=km
New "Line.CBT_25019" phases=3 bus1="BT134761.1.2.3.4" bus2="ET28_694.1.2.3.4" linecode="_" length=0.00100 units=km
New "Line.CBT_24995" phases=3 bus1="BT134741.1.2.3.4" bus2="BT134751.1.2.3.4" linecode="_" length=0.00100 units=km
New "Line.CBT_24953" phases=1 bus1="BT16961.1.4" bus2="BT16951.1.4" linecode="_" length=0.00100 units=km
New "Line.CBT_24971" phases=1 bus1="BT2972.1.4" bus2="ET28_4628.1.4" linecode="_" length=0.00100 units=km
New "Line.CBT_24927" phases=1 bus1="BT54501.1.4" bus2="ET2_1955.1.4" linecode="_" length=0.00100 units=km
New "Line.CBT_24940" phases=3 bus1="BT15171.1.2.3.4" bus2="BT15161.1.2.3.4" linecode="_" length=0.00100 units=km
New "Line.CBT_24877" phases=1 bus1="BT11141.1.4" bus2="ET2_1997.1.4" linecode="_" length=0.00100 units=km
New "Line.CBT_24878" phases=2 bus1="BT108521.1.2.4" bus2="ET28_1998.1.2.4" linecode="_" length=0.00100 units=km
New "Line.CBT_24879" phases=2 bus1="BT108531.1.2.4" bus2="BT108521.1.2.4" linecode="_" length=0.00100 units=km
New "Line.CBT_24888" phases=2 bus1="BT340711.1.2.4" bus2="ET28_2000.1.2.4" linecode="_" length=0.00100 units=km
New "Line.CBT_24869" phases=2 bus1="BT329921.1.2.4" bus2="BT47911.1.2.4" linecode="_" length=0.00100 units=km
New "Line.CBT_24834" phases=1 bus1="BT291091.1.4" bus2="ET28_2832.1.4" linecode="_" length=0.00100 units=km
New "Line.CBT_24836" phases=1 bus1="BT38801.1.4" bus2="BT38791.1.4" linecode="_" length=0.00100 units=km
New "Line.CBT_24837" phases=2 bus1="BT47931.1.2.4" bus2="ET28_627.1.2.4" linecode="_" length=0.00100 units=km
New "Line.CBT_24838" phases=1 bus1="BT47941.1.4" bus2="BT47931.1.4" linecode="_" length=0.00100 units=km
New "Line.CBT_24839" phases=1 bus1="BT59451.1.4" bus2="BT59431.1.4" linecode="_" length=0.00100 units=km
New "Line.CBT_24840" phases=2 bus1="BT47911.1.2.4" bus2="ET28_1993.1.2.4" linecode="_" length=0.00100 units=km
New "Line.CBT_24847" phases=3 bus1="BT134751.1.2.3.4" bus2="BT134761.1.2.3.4" linecode="_" length=0.00100 units=km
New "Line.CBT_24812" phases=1 bus1="BT38811.1.4" bus2="BT38791.1.4" linecode="_" length=0.00100 units=km
New "Line.CBT_24783" phases=1 bus1="BT109081.1.4" bus2="BT108541.1.4" linecode="_" length=0.00100 units=km
New "Line.CBT_24784" phases=1 bus1="BT142371.2.4" bus2="BT142381.2.4" linecode="_" length=0.00100 units=km
New "Line.CBT_24623" phases=2 bus1="BT21141.1.2.4" bus2="BT21131.1.2.4" linecode="_" length=0.00100 units=km
New "Line.CBT_24476" phases=1 bus1="BT21161.2.4" bus2="BT21141.2.4" linecode="_" length=0.00100 units=km
New "Line.CBT_24477" phases=1 bus1="BT17081.1.4" bus2="ET28_655.1.4" linecode="_" length=0.00100 units=km
New "Line.CBT_24478" phases=1 bus1="BT325841.1.4" bus2="BT75921.1.4" linecode="_" length=0.00100 units=km
New "Line.CBT_24468" phases=2 bus1="BT12051.1.2.4" bus2="BT12041.1.2.4" linecode="_" length=0.00100 units=km
New "Line.CBT_24469" phases=2 bus1="BT21121.1.2.4" bus2="BT21111.1.2.4" linecode="_" length=0.00100 units=km
New "Line.CBT_24350" phases=2 bus1="BT34031.1.2.4" bus2="ET28_693.1.2.4" linecode="_" length=0.00100 units=km
New "Line.CBT_24351" phases=2 bus1="BT34051.1.2.4" bus2="ET28_693.1.2.4" linecode="_" length=0.00100 units=km
New "Line.CBT_23603" phases=2 bus1="BT18311.1.2.4" bus2="BT18301.1.2.4" linecode="_" length=0.00100 units=km
New "Line.CBT_22941" phases=1 bus1="BT574701.1.4" bus2="BT31621.1.4" linecode="_" length=0.00100 units=km
New "Line.CBT_22228" phases=2 bus1="BT25101.1.2.4" bus2="BT25121.1.2.4" linecode="_" length=0.00100 units=km
New "Line.CBT_21597" phases=1 bus1="BT649301.2.4" bus2="BT378171.2.4" linecode="_" length=0.00100 units=km
New "Line.CBT_20436" phases=1 bus1="BT55451.2.4" bus2="BT55461.2.4" linecode="_" length=0.00100 units=km
New "Line.CBT_20377" phases=2 bus1="BT55461.1.2.4" bus2="ET2_1992.1.2.4" linecode="_" length=0.00100 units=km
New "Line.CBT_20089" phases=2 bus1="BT55501.1.2.4" bus2="BT55491.1.2.4" linecode="_" length=0.00100 units=km
New "Line.CBT_19773" phases=3 bus1="BT476731.1.2.3.4" bus2="BT513231.1.2.3.4" linecode="_" length=0.00100 units=km
New "Line.CBT_19667" phases=2 bus1="BT301791.1.2.4" bus2="ET28_3314.1.2.4" linecode="_" length=0.00100 units=km
New "Line.CBT_35469" phases=1 bus1="BT132671.1.4" bus2="BT132681.1.4" linecode="_" length=0.00100 units=km
New "Line.CBT_35470" phases=1 bus1="BT132681.1.4" bus2="BT132691.1.4" linecode="_" length=0.00100 units=km
New "Line.CBT_35471" phases=1 bus1="BT132691.1.4" bus2="BT132701.1.4" linecode="_" length=0.00100 units=km
New "Line.CBT_35472" phases=1 bus1="BT132701.1.4" bus2="ET28_695.1.4" linecode="_" length=0.00100 units=km
New "Line.CBT_35474" phases=1 bus1="BT141451.2.4" bus2="ET28_695.2.4" linecode="_" length=0.00100 units=km
New "Line.CBT_18434" phases=2 bus1="BT53531.1.2.4" bus2="ET28_4271.1.2.4" linecode="_" length=0.00100 units=km
New "Line.CBT_18311" phases=2 bus1="BT17111.1.2.4" bus2="BT17101.1.2.4" linecode="_" length=0.00100 units=km
New "Line.CBT_18265" phases=2 bus1="BT110001.1.2.4" bus2="ET28_2000.1.2.4" linecode="_" length=0.00100 units=km
New "Line.CBT_18267" phases=2 bus1="BT349651.1.2.4" bus2="BT134751.1.2.4" linecode="_" length=0.00100 units=km
New "Line.CBT_18179" phases=1 bus1="BT54491.2.4" bus2="ET2_1955.2.4" linecode="_" length=0.00100 units=km
New "Line.CBT_18182" phases=1 bus1="BT60941.1.4" bus2="BT28031.1.4" linecode="_" length=0.00100 units=km
New "Line.CBT_18186" phases=2 bus1="BT364541.1.2.4" bus2="ET28_5431.1.2.4" linecode="_" length=0.00100 units=km
New "Line.CBT_18189" phases=1 bus1="BT326281.1.4" bus2="BT326271.1.4" linecode="_" length=0.00100 units=km
New "Line.CBT_18077" phases=2 bus1="BT135781.1.2.4" bus2="BT135761.1.2.4" linecode="_" length=0.00100 units=km
New "Line.CBT_18078" phases=1 bus1="BT56461.1.4" bus2="ET28_1829.1.4" linecode="_" length=0.00100 units=km
New "Line.CBT_17707" phases=2 bus1="BT675971.1.2.4" bus2="BT371941.1.2.4" linecode="_" length=0.00100 units=km
New "Line.CBT_17697" phases=2 bus1="BT737841.1.2.4" bus2="BT60511.1.2.4" linecode="_" length=0.00100 units=km
New "Line.CBT_17670" phases=2 bus1="BT371931.1.2.4" bus2="ET28_5205.1.2.4" linecode="_" length=0.00100 units=km
New "Line.CBT_17671" phases=2 bus1="BT371941.1.2.4" bus2="ET28_5205.1.2.4" linecode="_" length=0.00100 units=km
New "Line.CBT_17684" phases=2 bus1="BT736151.1.2.4" bus2="BT703921.1.2.4" linecode="_" length=0.00100 units=km
New "Line.CBT_17600" phases=1 bus1="BT510451.1.4" bus2="ET28_3696.1.4" linecode="_" length=0.00100 units=km
New "Line.CBT_17601" phases=1 bus1="BT732581.1.4" bus2="BT732571.1.4" linecode="_" length=0.00100 units=km
New "Line.CBT_17556" phases=3 bus1="BT685311.1.2.3.4" bus2="ET28_5324.1.2.3.4" linecode="_" length=0.00100 units=km
New "Line.CBT_17520" phases=3 bus1="BT135631.1.2.3.4" bus2="BT689851.1.2.3.4" linecode="_" length=0.00100 units=km
New "Line.CBT_17407" phases=1 bus1="BT110011.1.4" bus2="ET28_5431.1.4" linecode="_" length=0.00100 units=km
New "Line.CBT_17358" phases=1 bus1="BT690481.1.4" bus2="ET28_5017.1.4" linecode="_" length=0.00100 units=km
New "Line.CBT_17314" phases=1 bus1="BT392751.1.4" bus2="ET28_5380.1.4" linecode="_" length=0.00100 units=km
New "Line.CBT_16644" phases=2 bus1="BT731101.1.2.4" bus2="ET28_699.1.2.4" linecode="_" length=0.00100 units=km
New "Line.CBT_16524" phases=2 bus1="BT43761.1.2.4" bus2="ET28_4506.1.2.4" linecode="_" length=0.00100 units=km
New "Line.CBT_16525" phases=2 bus1="BT668091.1.2.4" bus2="BT43021.1.2.4" linecode="_" length=0.00100 units=km
New "Line.CBT_16442" phases=2 bus1="BT340732.1.2.4" bus2="BT117781.1.2.4" linecode="_" length=0.00100 units=km
New "Line.CBT_16443" phases=1 bus1="BT340751.1.4" bus2="BT340732.1.4" linecode="_" length=0.00100 units=km
New "Line.CBT_16201" phases=1 bus1="BT43801.1.4" bus2="ET28_4874.1.4" linecode="_" length=0.00100 units=km
New "Line.CBT_16001" phases=2 bus1="BT719521.1.2.4" bus2="BT477411.1.2.4" linecode="_" length=0.00100 units=km
New "Line.CBT_16002" phases=2 bus1="BT719601.1.2.4" bus2="ET28_4801.1.2.4" linecode="_" length=0.00100 units=km
New "Line.CBT_16003" phases=2 bus1="BT16981.1.2.4" bus2="BT719601.1.2.4" linecode="_" length=0.00100 units=km
New "Line.CBT_16004" phases=2 bus1="BT16991.1.2.4" bus2="ET28_4801.1.2.4" linecode="_" length=0.00100 units=km
New "Line.CBT_15973" phases=2 bus1="BT703921.1.2.4" bus2="ET28_4965.1.2.4" linecode="_" length=0.00100 units=km
New "Line.CBT_15632" phases=2 bus1="BT53511.1.2.4" bus2="BT47952.1.2.4" linecode="_" length=0.00100 units=km
New "Line.CBT_15633" phases=1 bus1="BT47791.1.4" bus2="ET28_627.1.4" linecode="_" length=0.00100 units=km
New "Line.CBT_15634" phases=2 bus1="BT664041.1.2.4" bus2="BT347071.1.2.4" linecode="_" length=0.00100 units=km
New "Line.CBT_15635" phases=2 bus1="BT664071.1.2.4" bus2="ET32_702.1.2.4" linecode="_" length=0.00100 units=km
New "Line.CBT_15601" phases=2 bus1="BT627311.1.2.4" bus2="BT25111.1.2.4" linecode="_" length=0.00100 units=km
New "Line.CBT_15581" phases=1 bus1="BT649231.1.4" bus2="BT562461.1.4" linecode="_" length=0.00100 units=km
New "Line.CBT_15583" phases=1 bus1="BT664011.1.4" bus2="BT664001.1.4" linecode="_" length=0.00100 units=km
New "Line.CBT_15536" phases=3 bus1="BT513191.1.2.3.4" bus2="BT363381.1.2.3.4" linecode="_" length=0.00100 units=km
New "Line.CBT_15537" phases=3 bus1="BT513211.1.2.3.4" bus2="BT363381.1.2.3.4" linecode="_" length=0.00100 units=km
New "Line.CBT_15538" phases=2 bus1="BT476321.1.2.4" bus2="BT349681.1.2.4" linecode="_" length=0.00100 units=km
New "Line.CBT_15539" phases=1 bus1="BT135681.1.4" bus2="BT135691.1.4" linecode="_" length=0.00100 units=km
New "Line.CBT_15541" phases=2 bus1="BT135751.1.2.4" bus2="ET28_1173.1.2.4" linecode="_" length=0.00100 units=km
New "Line.CBT_15542" phases=1 bus1="BT199671.1.4" bus2="ET28_2000.1.4" linecode="_" length=0.00100 units=km
New "Line.CBT_15463" phases=1 bus1="BT298451.1.4" bus2="ET28_4270.1.4" linecode="_" length=0.00100 units=km
New "Line.CBT_15224" phases=1 bus1="BT497091.1.4" bus2="BT497071.1.4" linecode="_" length=0.00100 units=km
New "Line.CBT_15226" phases=3 bus1="BT497161.1.2.3.4" bus2="ET28_4437.1.2.3.4" linecode="_" length=0.00100 units=km
New "Line.CBT_15228" phases=3 bus1="BT506561.1.2.3.4" bus2="ET28_4437.1.2.3.4" linecode="_" length=0.00100 units=km
New "Line.CBT_14759" phases=2 bus1="BT113941.1.2.4" bus2="ET28_4048.1.2.4" linecode="_" length=0.00100 units=km
New "Line.CBT_14760" phases=2 bus1="BT12161.1.2.4" bus2="ET28_4047.1.2.4" linecode="_" length=0.00100 units=km
New "Line.CBT_14737" phases=1 bus1="BT53732.1.4" bus2="BT53711.1.4" linecode="_" length=0.00100 units=km
New "Line.CBT_14541" phases=2 bus1="BT27871.1.2.4" bus2="ET28_3781.1.2.4" linecode="_" length=0.00100 units=km
New "Line.CBT_14398" phases=1 bus1="BT563631.1.4" bus2="ET28_1474.1.4" linecode="_" length=0.00100 units=km
New "Line.CBT_14320" phases=2 bus1="BT559581.1.2.4" bus2="BT135791.1.2.4" linecode="_" length=0.00100 units=km
New "Line.CBT_14215" phases=1 bus1="BT606881.2.4" bus2="BT606871.2.4" linecode="_" length=0.00100 units=km
New "Line.CBT_14149" phases=1 bus1="BT310791.1.4" bus2="ET28_3654.1.4" linecode="_" length=0.00100 units=km