New "Circuit.1_3PAS_1" basekv=23.1 pu=1.0 bus1="1_3PAS_1" r1=0.0 x1=0.0001
