! Criação da seção de transformadores MT-MT ou MT-BT
New "Transformer.TRF_17_4963A" phases=1 windings=2 buses=["MRT_325671TRF_17_4963A.1" "ET17_4963.1.4"] conns=[Wye Wye] kvs=[13.3367912182804 0.22] kvas=[3 3] %loadloss=3.5 %noloadloss=1.166666
New "Linecode.LC_MRT_TRF_17_4963A_1" nphases=1 basefreq=60 r1=15000 x1=0 units=km normamps=0
New "Linecode.LC_MRT_TRF_17_4963A_2" nphases=2 basefreq=60 r1=15000 x1=0 units=km normamps=0
New "Linecode.LC_MRT_TRF_17_4963A_3" nphases=3 basefreq=60 r1=15000 x1=0 units=km normamps=0
New "Linecode.LC_MRT_TRF_17_4963A_4" nphases=4 basefreq=60 r1=15000 x1=0 units=km normamps=0
New "Line.Resist_MTR_TRF_17_4963A" phases=1 bus1="325671.1" bus2="MRT_325671TRF_17_4963A.1" linecode="LC_MRT_TRF_17_4963A_1" length=0.001 units=km
New "Reactor.TRF_17_4963A_R" phases=1 bus1=ET17_4963.4 R=15 X=0 basefreq=60
New "Transformer.TRF_2_1955A" phases=1 windings=3 buses=["MRT_54481TRF_2_1955A.2" "ET2_1955.1.4" "ET2_1955.4.2"] conns=[Wye Wye Wye] kvs=[13.3367912182804 0.22 0.22] kvas=[5 5 5] %loadloss=2.1 %noloadloss=0.7
New "Linecode.LC_MRT_TRF_2_1955A_1" nphases=1 basefreq=60 r1=15000 x1=0 units=km normamps=0
New "Linecode.LC_MRT_TRF_2_1955A_2" nphases=2 basefreq=60 r1=15000 x1=0 units=km normamps=0
New "Linecode.LC_MRT_TRF_2_1955A_3" nphases=3 basefreq=60 r1=15000 x1=0 units=km normamps=0
New "Linecode.LC_MRT_TRF_2_1955A_4" nphases=4 basefreq=60 r1=15000 x1=0 units=km normamps=0
New "Line.Resist_MTR_TRF_2_1955A" phases=1 bus1="54481.2" bus2="MRT_54481TRF_2_1955A.2" linecode="LC_MRT_TRF_2_1955A_1" length=0.001 units=km
New "Reactor.TRF_2_1955A_R" phases=1 bus1=ET2_1955.4 R=15 X=0 basefreq=60
New "Transformer.TRF_2_1992A" phases=1 windings=3 buses=["MRT_55471TRF_2_1992A.2" "ET2_1992.1.4" "ET2_1992.4.2"] conns=[Wye Wye Wye] kvs=[13.3367912182804 0.22 0.22] kvas=[15 15 15] %loadloss=1.766667 %noloadloss=0.433333
New "Linecode.LC_MRT_TRF_2_1992A_1" nphases=1 basefreq=60 r1=15000 x1=0 units=km normamps=0
New "Linecode.LC_MRT_TRF_2_1992A_2" nphases=2 basefreq=60 r1=15000 x1=0 units=km normamps=0
New "Linecode.LC_MRT_TRF_2_1992A_3" nphases=3 basefreq=60 r1=15000 x1=0 units=km normamps=0
New "Linecode.LC_MRT_TRF_2_1992A_4" nphases=4 basefreq=60 r1=15000 x1=0 units=km normamps=0
New "Line.Resist_MTR_TRF_2_1992A" phases=1 bus1="55471.2" bus2="MRT_55471TRF_2_1992A.2" linecode="LC_MRT_TRF_2_1992A_1" length=0.001 units=km
New "Reactor.TRF_2_1992A_R" phases=1 bus1=ET2_1992.4 R=15 X=0 basefreq=60
New "Transformer.TRF_2_1997A" phases=1 windings=3 buses=["MRT_11131TRF_2_1997A.3" "ET2_1997.1.4" "ET2_1997.4.2"] conns=[Wye Wye Wye] kvs=[13.3367912182804 0.22 0.22] kvas=[10 10 10] %loadloss=1.95 %noloadloss=0.5
New "Linecode.LC_MRT_TRF_2_1997A_1" nphases=1 basefreq=60 r1=15000 x1=0 units=km normamps=0
New "Linecode.LC_MRT_TRF_2_1997A_2" nphases=2 basefreq=60 r1=15000 x1=0 units=km normamps=0
New "Linecode.LC_MRT_TRF_2_1997A_3" nphases=3 basefreq=60 r1=15000 x1=0 units=km normamps=0
New "Linecode.LC_MRT_TRF_2_1997A_4" nphases=4 basefreq=60 r1=15000 x1=0 units=km normamps=0
New "Line.Resist_MTR_TRF_2_1997A" phases=1 bus1="11131.3" bus2="MRT_11131TRF_2_1997A.3" linecode="LC_MRT_TRF_2_1997A_1" length=0.001 units=km
New "Reactor.TRF_2_1997A_R" phases=1 bus1=ET2_1997.4 R=15 X=0 basefreq=60
New "Transformer.TRF_28_1044A" phases=1 windings=3 buses=["MRT_55591TRF_28_1044A.3" "ET28_1044.1.4" "ET28_1044.4.2"] conns=[Wye Wye Wye] kvs=[13.3367912182804 0.22 0.22] kvas=[10 10 10] %loadloss=1.95 %noloadloss=0.5
New "Linecode.LC_MRT_TRF_28_1044A_1" nphases=1 basefreq=60 r1=15000 x1=0 units=km normamps=0
New "Linecode.LC_MRT_TRF_28_1044A_2" nphases=2 basefreq=60 r1=15000 x1=0 units=km normamps=0
New "Linecode.LC_MRT_TRF_28_1044A_3" nphases=3 basefreq=60 r1=15000 x1=0 units=km normamps=0
New "Linecode.LC_MRT_TRF_28_1044A_4" nphases=4 basefreq=60 r1=15000 x1=0 units=km normamps=0
New "Line.Resist_MTR_TRF_28_1044A" phases=1 bus1="55591.3" bus2="MRT_55591TRF_28_1044A.3" linecode="LC_MRT_TRF_28_1044A_1" length=0.001 units=km
New "Reactor.TRF_28_1044A_R" phases=1 bus1=ET28_1044.4 R=15 X=0 basefreq=60
New "Transformer.TRF_28_1120A" phases=1 windings=3 buses=["MRT_38721TRF_28_1120A.1" "ET28_1120.1.4" "ET28_1120.4.2"] conns=[Wye Wye Wye] kvs=[13.3367912182804 0.22 0.22] kvas=[10 10 10] %loadloss=1.95 %noloadloss=0.5
New "Linecode.LC_MRT_TRF_28_1120A_1" nphases=1 basefreq=60 r1=15000 x1=0 units=km normamps=0
New "Linecode.LC_MRT_TRF_28_1120A_2" nphases=2 basefreq=60 r1=15000 x1=0 units=km normamps=0
New "Linecode.LC_MRT_TRF_28_1120A_3" nphases=3 basefreq=60 r1=15000 x1=0 units=km normamps=0
New "Linecode.LC_MRT_TRF_28_1120A_4" nphases=4 basefreq=60 r1=15000 x1=0 units=km normamps=0
New "Line.Resist_MTR_TRF_28_1120A" phases=1 bus1="38721.1" bus2="MRT_38721TRF_28_1120A.1" linecode="LC_MRT_TRF_28_1120A_1" length=0.001 units=km
New "Reactor.TRF_28_1120A_R" phases=1 bus1=ET28_1120.4 R=15 X=0 basefreq=60
New "Transformer.TRF_28_1173A" phases=1 windings=3 buses=["MRT_135741TRF_28_1173A.2" "ET28_1173.1.4" "ET28_1173.4.2"] conns=[Wye Wye Wye] kvs=[13.3367912182804 0.22 0.22] kvas=[15 15 15] %loadloss=1.766667 %noloadloss=0.433333
New "Linecode.LC_MRT_TRF_28_1173A_1" nphases=1 basefreq=60 r1=15000 x1=0 units=km normamps=0
New "Linecode.LC_MRT_TRF_28_1173A_2" nphases=2 basefreq=60 r1=15000 x1=0 units=km normamps=0
New "Linecode.LC_MRT_TRF_28_1173A_3" nphases=3 basefreq=60 r1=15000 x1=0 units=km normamps=0
New "Linecode.LC_MRT_TRF_28_1173A_4" nphases=4 basefreq=60 r1=15000 x1=0 units=km normamps=0
New "Line.Resist_MTR_TRF_28_1173A" phases=1 bus1="135741.2" bus2="MRT_135741TRF_28_1173A.2" linecode="LC_MRT_TRF_28_1173A_1" length=0.001 units=km
New "Reactor.TRF_28_1173A_R" phases=1 bus1=ET28_1173.4 R=15 X=0 basefreq=60
New "Transformer.TRF_28_1474A" phases=1 windings=3 buses=["MRT_56431TRF_28_1474A.1" "ET28_1474.1.4" "ET28_1474.4.2"] conns=[Wye Wye Wye] kvs=[13.3367912182804 0.22 0.22] kvas=[10 10 10] %loadloss=1.95 %noloadloss=0.5
New "Linecode.LC_MRT_TRF_28_1474A_1" nphases=1 basefreq=60 r1=15000 x1=0 units=km normamps=0
New "Linecode.LC_MRT_TRF_28_1474A_2" nphases=2 basefreq=60 r1=15000 x1=0 units=km normamps=0
New "Linecode.LC_MRT_TRF_28_1474A_3" nphases=3 basefreq=60 r1=15000 x1=0 units=km normamps=0
New "Linecode.LC_MRT_TRF_28_1474A_4" nphases=4 basefreq=60 r1=15000 x1=0 units=km normamps=0
New "Line.Resist_MTR_TRF_28_1474A" phases=1 bus1="56431.1" bus2="MRT_56431TRF_28_1474A.1" linecode="LC_MRT_TRF_28_1474A_1" length=0.001 units=km
New "Reactor.TRF_28_1474A_R" phases=1 bus1=ET28_1474.4 R=15 X=0 basefreq=60
New "Transformer.TRF_28_1751A" phases=1 windings=3 buses=["MRT_60351TRF_28_1751A.3" "ET28_1751.1.4" "ET28_1751.4.2"] conns=[Wye Wye Wye] kvs=[13.3367912182804 0.22 0.22] kvas=[10 10 10] %loadloss=1.95 %noloadloss=0.5
New "Linecode.LC_MRT_TRF_28_1751A_1" nphases=1 basefreq=60 r1=15000 x1=0 units=km normamps=0
New "Linecode.LC_MRT_TRF_28_1751A_2" nphases=2 basefreq=60 r1=15000 x1=0 units=km normamps=0
New "Linecode.LC_MRT_TRF_28_1751A_3" nphases=3 basefreq=60 r1=15000 x1=0 units=km normamps=0
New "Linecode.LC_MRT_TRF_28_1751A_4" nphases=4 basefreq=60 r1=15000 x1=0 units=km normamps=0
New "Line.Resist_MTR_TRF_28_1751A" phases=1 bus1="60351.3" bus2="MRT_60351TRF_28_1751A.3" linecode="LC_MRT_TRF_28_1751A_1" length=0.001 units=km
New "Reactor.TRF_28_1751A_R" phases=1 bus1=ET28_1751.4 R=15 X=0 basefreq=60
New "Transformer.TRF_28_1767A" phases=1 windings=3 buses=["MRT_38751TRF_28_1767A.1" "ET28_1767.1.4" "ET28_1767.4.2"] conns=[Wye Wye Wye] kvs=[13.3367912182804 0.22 0.22] kvas=[25 25 25] %loadloss=1.56 %noloadloss=0.36
New "Linecode.LC_MRT_TRF_28_1767A_1" nphases=1 basefreq=60 r1=15000 x1=0 units=km normamps=0
New "Linecode.LC_MRT_TRF_28_1767A_2" nphases=2 basefreq=60 r1=15000 x1=0 units=km normamps=0
New "Linecode.LC_MRT_TRF_28_1767A_3" nphases=3 basefreq=60 r1=15000 x1=0 units=km normamps=0
New "Linecode.LC_MRT_TRF_28_1767A_4" nphases=4 basefreq=60 r1=15000 x1=0 units=km normamps=0
New "Line.Resist_MTR_TRF_28_1767A" phases=1 bus1="38751.1" bus2="MRT_38751TRF_28_1767A.1" linecode="LC_MRT_TRF_28_1767A_1" length=0.001 units=km
New "Reactor.TRF_28_1767A_R" phases=1 bus1=ET28_1767.4 R=15 X=0 basefreq=60
New "Transformer.TRF_28_1829A" phases=1 windings=3 buses=["MRT_56471TRF_28_1829A.1" "ET28_1829.1.4" "ET28_1829.4.2"] conns=[Wye Wye Wye] kvs=[13.3367912182804 0.22 0.22] kvas=[10 10 10] %loadloss=1.95 %noloadloss=0.5
New "Linecode.LC_MRT_TRF_28_1829A_1" nphases=1 basefreq=60 r1=15000 x1=0 units=km normamps=0
New "Linecode.LC_MRT_TRF_28_1829A_2" nphases=2 basefreq=60 r1=15000 x1=0 units=km normamps=0
New "Linecode.LC_MRT_TRF_28_1829A_3" nphases=3 basefreq=60 r1=15000 x1=0 units=km normamps=0
New "Linecode.LC_MRT_TRF_28_1829A_4" nphases=4 basefreq=60 r1=15000 x1=0 units=km normamps=0
New "Line.Resist_MTR_TRF_28_1829A" phases=1 bus1="56471.1" bus2="MRT_56471TRF_28_1829A.1" linecode="LC_MRT_TRF_28_1829A_1" length=0.001 units=km
New "Reactor.TRF_28_1829A_R" phases=1 bus1=ET28_1829.4 R=15 X=0 basefreq=60
New "Transformer.TRF_28_1932A" phases=1 windings=3 buses=["MRT_109161TRF_28_1932A.3" "ET28_1932.1.4" "ET28_1932.4.2"] conns=[Wye Wye Wye] kvs=[13.3367912182804 0.22 0.22] kvas=[15 15 15] %loadloss=1.766667 %noloadloss=0.433333
New "Linecode.LC_MRT_TRF_28_1932A_1" nphases=1 basefreq=60 r1=15000 x1=0 units=km normamps=0
New "Linecode.LC_MRT_TRF_28_1932A_2" nphases=2 basefreq=60 r1=15000 x1=0 units=km normamps=0
New "Linecode.LC_MRT_TRF_28_1932A_3" nphases=3 basefreq=60 r1=15000 x1=0 units=km normamps=0
New "Linecode.LC_MRT_TRF_28_1932A_4" nphases=4 basefreq=60 r1=15000 x1=0 units=km normamps=0
New "Line.Resist_MTR_TRF_28_1932A" phases=1 bus1="109161.3" bus2="MRT_109161TRF_28_1932A.3" linecode="LC_MRT_TRF_28_1932A_1" length=0.001 units=km
New "Reactor.TRF_28_1932A_R" phases=1 bus1=ET28_1932.4 R=15 X=0 basefreq=60
New "Transformer.TRF_28_1935A" phases=1 windings=3 buses=["MRT_42831TRF_28_1935A.3" "ET28_1935.1.4" "ET28_1935.4.2"] conns=[Wye Wye Wye] kvs=[13.3367912182804 0.22 0.22] kvas=[10 10 10] %loadloss=1.95 %noloadloss=0.5
New "Linecode.LC_MRT_TRF_28_1935A_1" nphases=1 basefreq=60 r1=15000 x1=0 units=km normamps=0
New "Linecode.LC_MRT_TRF_28_1935A_2" nphases=2 basefreq=60 r1=15000 x1=0 units=km normamps=0
New "Linecode.LC_MRT_TRF_28_1935A_3" nphases=3 basefreq=60 r1=15000 x1=0 units=km normamps=0
New "Linecode.LC_MRT_TRF_28_1935A_4" nphases=4 basefreq=60 r1=15000 x1=0 units=km normamps=0
New "Line.Resist_MTR_TRF_28_1935A" phases=1 bus1="42831.3" bus2="MRT_42831TRF_28_1935A.3" linecode="LC_MRT_TRF_28_1935A_1" length=0.001 units=km
New "Reactor.TRF_28_1935A_R" phases=1 bus1=ET28_1935.4 R=15 X=0 basefreq=60
New "Transformer.TRF_28_1945A" phases=1 windings=3 buses=["MRT_14521TRF_28_1945A.3" "ET28_1945.1.4" "ET28_1945.4.2"] conns=[Wye Wye Wye] kvs=[13.3367912182804 0.22 0.22] kvas=[10 10 10] %loadloss=1.95 %noloadloss=0.5
New "Linecode.LC_MRT_TRF_28_1945A_1" nphases=1 basefreq=60 r1=15000 x1=0 units=km normamps=0
New "Linecode.LC_MRT_TRF_28_1945A_2" nphases=2 basefreq=60 r1=15000 x1=0 units=km normamps=0
New "Linecode.LC_MRT_TRF_28_1945A_3" nphases=3 basefreq=60 r1=15000 x1=0 units=km normamps=0
New "Linecode.LC_MRT_TRF_28_1945A_4" nphases=4 basefreq=60 r1=15000 x1=0 units=km normamps=0
New "Line.Resist_MTR_TRF_28_1945A" phases=1 bus1="14521.3" bus2="MRT_14521TRF_28_1945A.3" linecode="LC_MRT_TRF_28_1945A_1" length=0.001 units=km
New "Reactor.TRF_28_1945A_R" phases=1 bus1=ET28_1945.4 R=15 X=0 basefreq=60
New "Transformer.TRF_28_198A" phases=1 windings=3 buses=["MRT_135611TRF_28_198A.2" "ET28_198.1.4" "ET28_198.4.2"] conns=[Wye Wye Wye] kvs=[13.3367912182804 0.22 0.22] kvas=[15 15 15] %loadloss=1.766667 %noloadloss=0.433333
New "Linecode.LC_MRT_TRF_28_198A_1" nphases=1 basefreq=60 r1=15000 x1=0 units=km normamps=0
New "Linecode.LC_MRT_TRF_28_198A_2" nphases=2 basefreq=60 r1=15000 x1=0 units=km normamps=0
New "Linecode.LC_MRT_TRF_28_198A_3" nphases=3 basefreq=60 r1=15000 x1=0 units=km normamps=0
New "Linecode.LC_MRT_TRF_28_198A_4" nphases=4 basefreq=60 r1=15000 x1=0 units=km normamps=0
New "Line.Resist_MTR_TRF_28_198A" phases=1 bus1="135611.2" bus2="MRT_135611TRF_28_198A.2" linecode="LC_MRT_TRF_28_198A_1" length=0.001 units=km
New "Reactor.TRF_28_198A_R" phases=1 bus1=ET28_198.4 R=15 X=0 basefreq=60
New "Transformer.TRF_28_1990A" phases=3 windings=2 buses=["325621.1.2.3" "ET28_1990.1.2.3.4"] conns=[Delta Wye] kvs=[23.1 0.38] kvas=[75 75] %loadloss=3.84 %noloadloss=0.966666
New "Reactor.TRF_28_1990A_R" phases=1 bus1=ET28_1990.4 R=15 X=0 basefreq=60
New "Transformer.TRF_28_1991A" phases=1 windings=3 buses=["MRT_59421TRF_28_1991A.1" "ET28_1991.1.4" "ET28_1991.4.2"] conns=[Wye Wye Wye] kvs=[13.3367912182804 0.22 0.22] kvas=[15 15 15] %loadloss=1.766667 %noloadloss=0.433333
New "Linecode.LC_MRT_TRF_28_1991A_1" nphases=1 basefreq=60 r1=15000 x1=0 units=km normamps=0
New "Linecode.LC_MRT_TRF_28_1991A_2" nphases=2 basefreq=60 r1=15000 x1=0 units=km normamps=0
New "Linecode.LC_MRT_TRF_28_1991A_3" nphases=3 basefreq=60 r1=15000 x1=0 units=km normamps=0
New "Linecode.LC_MRT_TRF_28_1991A_4" nphases=4 basefreq=60 r1=15000 x1=0 units=km normamps=0
New "Line.Resist_MTR_TRF_28_1991A" phases=1 bus1="59421.1" bus2="MRT_59421TRF_28_1991A.1" linecode="LC_MRT_TRF_28_1991A_1" length=0.001 units=km
New "Reactor.TRF_28_1991A_R" phases=1 bus1=ET28_1991.4 R=15 X=0 basefreq=60
New "Transformer.TRF_28_1993A" phases=1 windings=3 buses=["MRT_47901TRF_28_1993A.1" "ET28_1993.1.4" "ET28_1993.4.2"] conns=[Wye Wye Wye] kvs=[13.3367912182804 0.22 0.22] kvas=[25 25 25] %loadloss=1.56 %noloadloss=0.36
New "Linecode.LC_MRT_TRF_28_1993A_1" nphases=1 basefreq=60 r1=15000 x1=0 units=km normamps=0
New "Linecode.LC_MRT_TRF_28_1993A_2" nphases=2 basefreq=60 r1=15000 x1=0 units=km normamps=0
New "Linecode.LC_MRT_TRF_28_1993A_3" nphases=3 basefreq=60 r1=15000 x1=0 units=km normamps=0
New "Linecode.LC_MRT_TRF_28_1993A_4" nphases=4 basefreq=60 r1=15000 x1=0 units=km normamps=0
New "Line.Resist_MTR_TRF_28_1993A" phases=1 bus1="47901.1" bus2="MRT_47901TRF_28_1993A.1" linecode="LC_MRT_TRF_28_1993A_1" length=0.001 units=km
New "Reactor.TRF_28_1993A_R" phases=1 bus1=ET28_1993.4 R=15 X=0 basefreq=60
New "Transformer.TRF_28_1996A" phases=1 windings=3 buses=["MRT_27811TRF_28_1996A.1" "ET28_1996.1.4" "ET28_1996.4.2"] conns=[Wye Wye Wye] kvs=[13.3367912182804 0.22 0.22] kvas=[10 10 10] %loadloss=1.95 %noloadloss=0.5
New "Linecode.LC_MRT_TRF_28_1996A_1" nphases=1 basefreq=60 r1=15000 x1=0 units=km normamps=0
New "Linecode.LC_MRT_TRF_28_1996A_2" nphases=2 basefreq=60 r1=15000 x1=0 units=km normamps=0
New "Linecode.LC_MRT_TRF_28_1996A_3" nphases=3 basefreq=60 r1=15000 x1=0 units=km normamps=0
New "Linecode.LC_MRT_TRF_28_1996A_4" nphases=4 basefreq=60 r1=15000 x1=0 units=km normamps=0
New "Line.Resist_MTR_TRF_28_1996A" phases=1 bus1="27811.1" bus2="MRT_27811TRF_28_1996A.1" linecode="LC_MRT_TRF_28_1996A_1" length=0.001 units=km
New "Reactor.TRF_28_1996A_R" phases=1 bus1=ET28_1996.4 R=15 X=0 basefreq=60
New "Transformer.TRF_28_1998A" phases=1 windings=3 buses=["MRT_142421TRF_28_1998A.1" "ET28_1998.1.4" "ET28_1998.4.2"] conns=[Wye Wye Wye] kvs=[13.3367912182804 0.22 0.22] kvas=[25 25 25] %loadloss=1.56 %noloadloss=0.36
New "Linecode.LC_MRT_TRF_28_1998A_1" nphases=1 basefreq=60 r1=15000 x1=0 units=km normamps=0
New "Linecode.LC_MRT_TRF_28_1998A_2" nphases=2 basefreq=60 r1=15000 x1=0 units=km normamps=0
New "Linecode.LC_MRT_TRF_28_1998A_3" nphases=3 basefreq=60 r1=15000 x1=0 units=km normamps=0
New "Linecode.LC_MRT_TRF_28_1998A_4" nphases=4 basefreq=60 r1=15000 x1=0 units=km normamps=0
New "Line.Resist_MTR_TRF_28_1998A" phases=1 bus1="142421.1" bus2="MRT_142421TRF_28_1998A.1" linecode="LC_MRT_TRF_28_1998A_1" length=0.001 units=km
New "Reactor.TRF_28_1998A_R" phases=1 bus1=ET28_1998.4 R=15 X=0 basefreq=60
New "Transformer.TRF_28_2000A" phases=1 windings=3 buses=["MRT_110031TRF_28_2000A.1" "ET28_2000.1.4" "ET28_2000.4.2"] conns=[Wye Wye Wye] kvs=[13.3367912182804 0.22 0.22] kvas=[10 10 10] %loadloss=1.95 %noloadloss=0.5
New "Linecode.LC_MRT_TRF_28_2000A_1" nphases=1 basefreq=60 r1=15000 x1=0 units=km normamps=0
New "Linecode.LC_MRT_TRF_28_2000A_2" nphases=2 basefreq=60 r1=15000 x1=0 units=km normamps=0
New "Linecode.LC_MRT_TRF_28_2000A_3" nphases=3 basefreq=60 r1=15000 x1=0 units=km normamps=0
New "Linecode.LC_MRT_TRF_28_2000A_4" nphases=4 basefreq=60 r1=15000 x1=0 units=km normamps=0
New "Line.Resist_MTR_TRF_28_2000A" phases=1 bus1="110031.1" bus2="MRT_110031TRF_28_2000A.1" linecode="LC_MRT_TRF_28_2000A_1" length=0.001 units=km
New "Reactor.TRF_28_2000A_R" phases=1 bus1=ET28_2000.4 R=15 X=0 basefreq=60
New "Transformer.TRF_28_2247A" phases=1 windings=3 buses=["MRT_134801TRF_28_2247A.2" "ET28_2247.1.4" "ET28_2247.4.2"] conns=[Wye Wye Wye] kvs=[13.3367912182804 0.22 0.22] kvas=[10 10 10] %loadloss=1.95 %noloadloss=0.5
New "Linecode.LC_MRT_TRF_28_2247A_1" nphases=1 basefreq=60 r1=15000 x1=0 units=km normamps=0
New "Linecode.LC_MRT_TRF_28_2247A_2" nphases=2 basefreq=60 r1=15000 x1=0 units=km normamps=0
New "Linecode.LC_MRT_TRF_28_2247A_3" nphases=3 basefreq=60 r1=15000 x1=0 units=km normamps=0
New "Linecode.LC_MRT_TRF_28_2247A_4" nphases=4 basefreq=60 r1=15000 x1=0 units=km normamps=0
New "Line.Resist_MTR_TRF_28_2247A" phases=1 bus1="134801.2" bus2="MRT_134801TRF_28_2247A.2" linecode="LC_MRT_TRF_28_2247A_1" length=0.001 units=km
New "Reactor.TRF_28_2247A_R" phases=1 bus1=ET28_2247.4 R=15 X=0 basefreq=60
New "Transformer.TRF_28_2283A" phases=1 windings=3 buses=["MRT_376511TRF_28_2283A.2" "ET28_2283.1.4" "ET28_2283.4.2"] conns=[Wye Wye Wye] kvs=[13.3367912182804 0.22 0.22] kvas=[10 10 10] %loadloss=1.95 %noloadloss=0.5
New "Linecode.LC_MRT_TRF_28_2283A_1" nphases=1 basefreq=60 r1=15000 x1=0 units=km normamps=0
New "Linecode.LC_MRT_TRF_28_2283A_2" nphases=2 basefreq=60 r1=15000 x1=0 units=km normamps=0
New "Linecode.LC_MRT_TRF_28_2283A_3" nphases=3 basefreq=60 r1=15000 x1=0 units=km normamps=0
New "Linecode.LC_MRT_TRF_28_2283A_4" nphases=4 basefreq=60 r1=15000 x1=0 units=km normamps=0
New "Line.Resist_MTR_TRF_28_2283A" phases=1 bus1="376511.2" bus2="MRT_376511TRF_28_2283A.2" linecode="LC_MRT_TRF_28_2283A_1" length=0.001 units=km
New "Reactor.TRF_28_2283A_R" phases=1 bus1=ET28_2283.4 R=15 X=0 basefreq=60
New "Transformer.TRF_28_2288A" phases=1 windings=3 buses=["MRT_357411TRF_28_2288A.1" "ET28_2288.1.4" "ET28_2288.4.2"] conns=[Wye Wye Wye] kvs=[13.3367912182804 0.22 0.22] kvas=[5 5 5] %loadloss=2.1 %noloadloss=0.7
New "Linecode.LC_MRT_TRF_28_2288A_1" nphases=1 basefreq=60 r1=15000 x1=0 units=km normamps=0
New "Linecode.LC_MRT_TRF_28_2288A_2" nphases=2 basefreq=60 r1=15000 x1=0 units=km normamps=0
New "Linecode.LC_MRT_TRF_28_2288A_3" nphases=3 basefreq=60 r1=15000 x1=0 units=km normamps=0
New "Linecode.LC_MRT_TRF_28_2288A_4" nphases=4 basefreq=60 r1=15000 x1=0 units=km normamps=0
New "Line.Resist_MTR_TRF_28_2288A" phases=1 bus1="357411.1" bus2="MRT_357411TRF_28_2288A.1" linecode="LC_MRT_TRF_28_2288A_1" length=0.001 units=km
New "Reactor.TRF_28_2288A_R" phases=1 bus1=ET28_2288.4 R=15 X=0 basefreq=60
New "Transformer.TRF_28_2303A" phases=1 windings=3 buses=["MRT_110071TRF_28_2303A.3" "ET28_2303.1.4" "ET28_2303.4.2"] conns=[Wye Wye Wye] kvs=[13.3367912182804 0.22 0.22] kvas=[10 10 10] %loadloss=1.95 %noloadloss=0.5
New "Linecode.LC_MRT_TRF_28_2303A_1" nphases=1 basefreq=60 r1=15000 x1=0 units=km normamps=0
New "Linecode.LC_MRT_TRF_28_2303A_2" nphases=2 basefreq=60 r1=15000 x1=0 units=km normamps=0
New "Linecode.LC_MRT_TRF_28_2303A_3" nphases=3 basefreq=60 r1=15000 x1=0 units=km normamps=0
New "Linecode.LC_MRT_TRF_28_2303A_4" nphases=4 basefreq=60 r1=15000 x1=0 units=km normamps=0
New "Line.Resist_MTR_TRF_28_2303A" phases=1 bus1="110071.3" bus2="MRT_110071TRF_28_2303A.3" linecode="LC_MRT_TRF_28_2303A_1" length=0.001 units=km
New "Reactor.TRF_28_2303A_R" phases=1 bus1=ET28_2303.4 R=15 X=0 basefreq=60
New "Transformer.TRF_28_2304A" phases=1 windings=3 buses=["MRT_13081TRF_28_2304A.3" "ET28_2304.1.4" "ET28_2304.4.2"] conns=[Wye Wye Wye] kvs=[13.3367912182804 0.22 0.22] kvas=[10 10 10] %loadloss=1.95 %noloadloss=0.5
New "Linecode.LC_MRT_TRF_28_2304A_1" nphases=1 basefreq=60 r1=15000 x1=0 units=km normamps=0
New "Linecode.LC_MRT_TRF_28_2304A_2" nphases=2 basefreq=60 r1=15000 x1=0 units=km normamps=0
New "Linecode.LC_MRT_TRF_28_2304A_3" nphases=3 basefreq=60 r1=15000 x1=0 units=km normamps=0
New "Linecode.LC_MRT_TRF_28_2304A_4" nphases=4 basefreq=60 r1=15000 x1=0 units=km normamps=0
New "Line.Resist_MTR_TRF_28_2304A" phases=1 bus1="13081.3" bus2="MRT_13081TRF_28_2304A.3" linecode="LC_MRT_TRF_28_2304A_1" length=0.001 units=km
New "Reactor.TRF_28_2304A_R" phases=1 bus1=ET28_2304.4 R=15 X=0 basefreq=60
New "Transformer.TRF_28_2316A" phases=1 windings=3 buses=["MRT_42951TRF_28_2316A.3" "ET28_2316.1.4" "ET28_2316.4.2"] conns=[Wye Wye Wye] kvs=[13.3367912182804 0.22 0.22] kvas=[15 15 15] %loadloss=1.766667 %noloadloss=0.433333
New "Linecode.LC_MRT_TRF_28_2316A_1" nphases=1 basefreq=60 r1=15000 x1=0 units=km normamps=0
New "Linecode.LC_MRT_TRF_28_2316A_2" nphases=2 basefreq=60 r1=15000 x1=0 units=km normamps=0
New "Linecode.LC_MRT_TRF_28_2316A_3" nphases=3 basefreq=60 r1=15000 x1=0 units=km normamps=0
New "Linecode.LC_MRT_TRF_28_2316A_4" nphases=4 basefreq=60 r1=15000 x1=0 units=km normamps=0
New "Line.Resist_MTR_TRF_28_2316A" phases=1 bus1="42951.3" bus2="MRT_42951TRF_28_2316A.3" linecode="LC_MRT_TRF_28_2316A_1" length=0.001 units=km
New "Reactor.TRF_28_2316A_R" phases=1 bus1=ET28_2316.4 R=15 X=0 basefreq=60
New "Transformer.TRF_28_2412A" phases=1 windings=3 buses=["MRT_134661TRF_28_2412A.1" "ET28_2412.1.4" "ET28_2412.4.2"] conns=[Wye Wye Wye] kvs=[13.3367912182804 0.22 0.22] kvas=[10 10 10] %loadloss=1.95 %noloadloss=0.5
New "Linecode.LC_MRT_TRF_28_2412A_1" nphases=1 basefreq=60 r1=15000 x1=0 units=km normamps=0
New "Linecode.LC_MRT_TRF_28_2412A_2" nphases=2 basefreq=60 r1=15000 x1=0 units=km normamps=0
New "Linecode.LC_MRT_TRF_28_2412A_3" nphases=3 basefreq=60 r1=15000 x1=0 units=km normamps=0
New "Linecode.LC_MRT_TRF_28_2412A_4" nphases=4 basefreq=60 r1=15000 x1=0 units=km normamps=0
New "Line.Resist_MTR_TRF_28_2412A" phases=1 bus1="134661.1" bus2="MRT_134661TRF_28_2412A.1" linecode="LC_MRT_TRF_28_2412A_1" length=0.001 units=km
New "Reactor.TRF_28_2412A_R" phases=1 bus1=ET28_2412.4 R=15 X=0 basefreq=60
New "Transformer.TRF_28_2706A" phases=3 windings=2 buses=["753871.1.2.3" "ET28_2706.1.2.3.4"] conns=[Delta Wye] kvs=[23.1 0.38] kvas=[30 30] %loadloss=2.1 %noloadloss=0.533333
New "Reactor.TRF_28_2706A_R" phases=1 bus1=ET28_2706.4 R=15 X=0 basefreq=60
New "Transformer.TRF_28_2790A" phases=1 windings=3 buses=["47121.3.1" "ET28_2790.1.4" "ET28_2790.4.2"] conns=[Delta Wye Wye] kvs=[23.1 0.22 0.22] kvas=[5 5 5] %loadloss=2.3 %noloadloss=0.8
New "Reactor.TRF_28_2790A_R" phases=1 bus1=ET28_2790.4 R=15 X=0 basefreq=60
New "Transformer.TRF_28_2791A" phases=1 windings=3 buses=["MRT_53741TRF_28_2791A.2" "ET28_2791.1.4" "ET28_2791.4.2"] conns=[Wye Wye Wye] kvs=[13.3367912182804 0.22 0.22] kvas=[5 5 5] %loadloss=2.1 %noloadloss=0.7
New "Linecode.LC_MRT_TRF_28_2791A_1" nphases=1 basefreq=60 r1=15000 x1=0 units=km normamps=0
New "Linecode.LC_MRT_TRF_28_2791A_2" nphases=2 basefreq=60 r1=15000 x1=0 units=km normamps=0
New "Linecode.LC_MRT_TRF_28_2791A_3" nphases=3 basefreq=60 r1=15000 x1=0 units=km normamps=0
New "Linecode.LC_MRT_TRF_28_2791A_4" nphases=4 basefreq=60 r1=15000 x1=0 units=km normamps=0
New "Line.Resist_MTR_TRF_28_2791A" phases=1 bus1="53741.2" bus2="MRT_53741TRF_28_2791A.2" linecode="LC_MRT_TRF_28_2791A_1" length=0.001 units=km
New "Reactor.TRF_28_2791A_R" phases=1 bus1=ET28_2791.4 R=15 X=0 basefreq=60
New "Transformer.TRF_28_2793A" phases=1 windings=3 buses=["MRT_109951TRF_28_2793A.3" "ET28_2793.1.4" "ET28_2793.4.2"] conns=[Wye Wye Wye] kvs=[13.3367912182804 0.22 0.22] kvas=[10 10 10] %loadloss=1.95 %noloadloss=0.5
New "Linecode.LC_MRT_TRF_28_2793A_1" nphases=1 basefreq=60 r1=15000 x1=0 units=km normamps=0
New "Linecode.LC_MRT_TRF_28_2793A_2" nphases=2 basefreq=60 r1=15000 x1=0 units=km normamps=0
New "Linecode.LC_MRT_TRF_28_2793A_3" nphases=3 basefreq=60 r1=15000 x1=0 units=km normamps=0
New "Linecode.LC_MRT_TRF_28_2793A_4" nphases=4 basefreq=60 r1=15000 x1=0 units=km normamps=0
New "Line.Resist_MTR_TRF_28_2793A" phases=1 bus1="109951.3" bus2="MRT_109951TRF_28_2793A.3" linecode="LC_MRT_TRF_28_2793A_1" length=0.001 units=km
New "Reactor.TRF_28_2793A_R" phases=1 bus1=ET28_2793.4 R=15 X=0 basefreq=60
New "Transformer.TRF_28_2805A" phases=1 windings=3 buses=["MRT_142231TRF_28_2805A.3" "ET28_2805.1.4" "ET28_2805.4.2"] conns=[Wye Wye Wye] kvs=[13.3367912182804 0.22 0.22] kvas=[15 15 15] %loadloss=1.766667 %noloadloss=0.433333
New "Linecode.LC_MRT_TRF_28_2805A_1" nphases=1 basefreq=60 r1=15000 x1=0 units=km normamps=0
New "Linecode.LC_MRT_TRF_28_2805A_2" nphases=2 basefreq=60 r1=15000 x1=0 units=km normamps=0
New "Linecode.LC_MRT_TRF_28_2805A_3" nphases=3 basefreq=60 r1=15000 x1=0 units=km normamps=0
New "Linecode.LC_MRT_TRF_28_2805A_4" nphases=4 basefreq=60 r1=15000 x1=0 units=km normamps=0
New "Line.Resist_MTR_TRF_28_2805A" phases=1 bus1="142231.3" bus2="MRT_142231TRF_28_2805A.3" linecode="LC_MRT_TRF_28_2805A_1" length=0.001 units=km
New "Reactor.TRF_28_2805A_R" phases=1 bus1=ET28_2805.4 R=15 X=0 basefreq=60
New "Transformer.TRF_28_2832A" phases=1 windings=3 buses=["MRT_275741TRF_28_2832A.1" "ET28_2832.1.4" "ET28_2832.4.2"] conns=[Wye Wye Wye] kvs=[13.3367912182804 0.22 0.22] kvas=[10 10 10] %loadloss=1.95 %noloadloss=0.5
New "Linecode.LC_MRT_TRF_28_2832A_1" nphases=1 basefreq=60 r1=15000 x1=0 units=km normamps=0
New "Linecode.LC_MRT_TRF_28_2832A_2" nphases=2 basefreq=60 r1=15000 x1=0 units=km normamps=0
New "Linecode.LC_MRT_TRF_28_2832A_3" nphases=3 basefreq=60 r1=15000 x1=0 units=km normamps=0
New "Linecode.LC_MRT_TRF_28_2832A_4" nphases=4 basefreq=60 r1=15000 x1=0 units=km normamps=0
New "Line.Resist_MTR_TRF_28_2832A" phases=1 bus1="275741.1" bus2="MRT_275741TRF_28_2832A.1" linecode="LC_MRT_TRF_28_2832A_1" length=0.001 units=km
New "Reactor.TRF_28_2832A_R" phases=1 bus1=ET28_2832.4 R=15 X=0 basefreq=60
New "Transformer.TRF_28_2943A" phases=1 windings=3 buses=["MRT_540661TRF_28_2943A.1" "ET28_2943.1.4" "ET28_2943.4.2"] conns=[Wye Wye Wye] kvs=[13.3367912182804 0.22 0.22] kvas=[15 15 15] %loadloss=1.766667 %noloadloss=0.433333
New "Linecode.LC_MRT_TRF_28_2943A_1" nphases=1 basefreq=60 r1=15000 x1=0 units=km normamps=0
New "Linecode.LC_MRT_TRF_28_2943A_2" nphases=2 basefreq=60 r1=15000 x1=0 units=km normamps=0
New "Linecode.LC_MRT_TRF_28_2943A_3" nphases=3 basefreq=60 r1=15000 x1=0 units=km normamps=0
New "Linecode.LC_MRT_TRF_28_2943A_4" nphases=4 basefreq=60 r1=15000 x1=0 units=km normamps=0
New "Line.Resist_MTR_TRF_28_2943A" phases=1 bus1="540661.1" bus2="MRT_540661TRF_28_2943A.1" linecode="LC_MRT_TRF_28_2943A_1" length=0.001 units=km
New "Reactor.TRF_28_2943A_R" phases=1 bus1=ET28_2943.4 R=15 X=0 basefreq=60
New "Transformer.TRF_28_2944A" phases=1 windings=3 buses=["MRT_53591TRF_28_2944A.1" "ET28_2944.1.4" "ET28_2944.4.2"] conns=[Wye Wye Wye] kvs=[13.3367912182804 0.22 0.22] kvas=[15 15 15] %loadloss=1.766667 %noloadloss=0.433333
New "Linecode.LC_MRT_TRF_28_2944A_1" nphases=1 basefreq=60 r1=15000 x1=0 units=km normamps=0
New "Linecode.LC_MRT_TRF_28_2944A_2" nphases=2 basefreq=60 r1=15000 x1=0 units=km normamps=0
New "Linecode.LC_MRT_TRF_28_2944A_3" nphases=3 basefreq=60 r1=15000 x1=0 units=km normamps=0
New "Linecode.LC_MRT_TRF_28_2944A_4" nphases=4 basefreq=60 r1=15000 x1=0 units=km normamps=0
New "Line.Resist_MTR_TRF_28_2944A" phases=1 bus1="53591.1" bus2="MRT_53591TRF_28_2944A.1" linecode="LC_MRT_TRF_28_2944A_1" length=0.001 units=km
New "Reactor.TRF_28_2944A_R" phases=1 bus1=ET28_2944.4 R=15 X=0 basefreq=60
New "Transformer.TRF_28_2945A" phases=1 windings=3 buses=["MRT_13181TRF_28_2945A.1" "ET28_2945.1.4" "ET28_2945.4.2"] conns=[Wye Wye Wye] kvs=[13.3367912182804 0.22 0.22] kvas=[10 10 10] %loadloss=1.95 %noloadloss=0.5
New "Linecode.LC_MRT_TRF_28_2945A_1" nphases=1 basefreq=60 r1=15000 x1=0 units=km normamps=0
New "Linecode.LC_MRT_TRF_28_2945A_2" nphases=2 basefreq=60 r1=15000 x1=0 units=km normamps=0
New "Linecode.LC_MRT_TRF_28_2945A_3" nphases=3 basefreq=60 r1=15000 x1=0 units=km normamps=0
New "Linecode.LC_MRT_TRF_28_2945A_4" nphases=4 basefreq=60 r1=15000 x1=0 units=km normamps=0
New "Line.Resist_MTR_TRF_28_2945A" phases=1 bus1="13181.1" bus2="MRT_13181TRF_28_2945A.1" linecode="LC_MRT_TRF_28_2945A_1" length=0.001 units=km
New "Reactor.TRF_28_2945A_R" phases=1 bus1=ET28_2945.4 R=15 X=0 basefreq=60
New "Transformer.TRF_28_3024A" phases=1 windings=3 buses=["MRT_134721TRF_28_3024A.1" "ET28_3024.1.4" "ET28_3024.4.2"] conns=[Wye Wye Wye] kvs=[13.3367912182804 0.22 0.22] kvas=[25 25 25] %loadloss=1.56 %noloadloss=0.36
New "Linecode.LC_MRT_TRF_28_3024A_1" nphases=1 basefreq=60 r1=15000 x1=0 units=km normamps=0
New "Linecode.LC_MRT_TRF_28_3024A_2" nphases=2 basefreq=60 r1=15000 x1=0 units=km normamps=0
New "Linecode.LC_MRT_TRF_28_3024A_3" nphases=3 basefreq=60 r1=15000 x1=0 units=km normamps=0
New "Linecode.LC_MRT_TRF_28_3024A_4" nphases=4 basefreq=60 r1=15000 x1=0 units=km normamps=0
New "Line.Resist_MTR_TRF_28_3024A" phases=1 bus1="134721.1" bus2="MRT_134721TRF_28_3024A.1" linecode="LC_MRT_TRF_28_3024A_1" length=0.001 units=km
New "Reactor.TRF_28_3024A_R" phases=1 bus1=ET28_3024.4 R=15 X=0 basefreq=60
New "Transformer.TRF_28_3047A" phases=1 windings=3 buses=["MRT_359341TRF_28_3047A.3" "ET28_3047.1.4" "ET28_3047.4.2"] conns=[Wye Wye Wye] kvs=[13.3367912182804 0.22 0.22] kvas=[15 15 15] %loadloss=1.766667 %noloadloss=0.433333
New "Linecode.LC_MRT_TRF_28_3047A_1" nphases=1 basefreq=60 r1=15000 x1=0 units=km normamps=0
New "Linecode.LC_MRT_TRF_28_3047A_2" nphases=2 basefreq=60 r1=15000 x1=0 units=km normamps=0
New "Linecode.LC_MRT_TRF_28_3047A_3" nphases=3 basefreq=60 r1=15000 x1=0 units=km normamps=0
New "Linecode.LC_MRT_TRF_28_3047A_4" nphases=4 basefreq=60 r1=15000 x1=0 units=km normamps=0
New "Line.Resist_MTR_TRF_28_3047A" phases=1 bus1="359341.3" bus2="MRT_359341TRF_28_3047A.3" linecode="LC_MRT_TRF_28_3047A_1" length=0.001 units=km