New "Transformer.TRF_28_3654" phases=1 windings=2 buses=["MRT_11151TRF_28_3654.2" "ET28_3654.1.4" ] conns=[Wye Wye] kvs=[] taps=[1.0 1.0] kvas=[5.0 5.0] %loadloss=2.100 %noloadloss=0.700
New "Linecode.LC_MRT_TRF_28_3654_1" nphases=1 basefreq=60 r1=15000 x1=0 units=km normamps=0
New "Linecode.LC_MRT_TRF_28_3654_2" nphases=2 basefreq=60 r1=15000 x1=0 units=km normamps=0
New "Linecode.LC_MRT_TRF_28_3654_3" nphases=3 basefreq=60 r1=15000 x1=0 units=km normamps=0
New "Linecode.LC_MRT_TRF_28_3654_4" nphases=4 basefreq=60 r1=15000 x1=0 units=km normamps=0
New "Line.Resist_MTR_TRF_28_3654" phases=1 bus1="11151.2" bus2="MRT_11151TRF_28_3654.2" linecode="LC_MRT_TRF_28_3654_1" length=0.001 units=km
New "Reactor.TRF_28_3654" phases=1 bus1="ET28_3654.4" R=15 X=0 basefreq=60
New "Transformer.TRF_28_633" phases=1 windings=3 buses=["74631.3.1" "ET28_633.1.4" "ET28_633.4.2"] conns=[Delta Wye Wye] kvs=[23 0.44] taps=[1.0 1.0 1.0] kvas=[25.0 25.0 25.0] %loadloss=1.680 %noloadloss=0.400
New "Reactor.TRF_28_633" phases=1 bus1="ET28_633.4" R=15 X=0 basefreq=60
New "Transformer.TRF_28_3311" phases=1 windings=3 buses=["MRT_42861TRF_28_3311.3" "ET28_3311.1.4" "ET28_3311.4.2" ] conns=[Wye Wye Wye] kvs=[13.8 0.44] taps=[1.0 1.0 1.0] kvas=[10.0 10.0 10.0] %loadloss=1.950 %noloadloss=0.500
New "Linecode.LC_MRT_TRF_28_3311_1" nphases=1 basefreq=60 r1=15000 x1=0 units=km normamps=0
New "Linecode.LC_MRT_TRF_28_3311_2" nphases=2 basefreq=60 r1=15000 x1=0 units=km normamps=0
New "Linecode.LC_MRT_TRF_28_3311_3" nphases=3 basefreq=60 r1=15000 x1=0 units=km normamps=0
New "Linecode.LC_MRT_TRF_28_3311_4" nphases=4 basefreq=60 r1=15000 x1=0 units=km normamps=0
New "Line.Resist_MTR_TRF_28_3311" phases=1 bus1="42861.3" bus2="MRT_42861TRF_28_3311.3" linecode="LC_MRT_TRF_28_3311_1" length=0.001 units=km
New "Reactor.TRF_28_3311" phases=1 bus1="ET28_3311.4" R=15 X=0 basefreq=60
New "Transformer.TRF_28_4958" phases=1 windings=3 buses=["MRT_47891TRF_28_4958.1" "ET28_4958.1.4" "ET28_4958.4.2" ] conns=[Wye Wye Wye] kvs=[13.8 0.44] taps=[1.0 1.0 1.0] kvas=[15.0 15.0 15.0] %loadloss=1.767 %noloadloss=0.433
New "Linecode.LC_MRT_TRF_28_4958_1" nphases=1 basefreq=60 r1=15000 x1=0 units=km normamps=0
New "Linecode.LC_MRT_TRF_28_4958_2" nphases=2 basefreq=60 r1=15000 x1=0 units=km normamps=0
New "Linecode.LC_MRT_TRF_28_4958_3" nphases=3 basefreq=60 r1=15000 x1=0 units=km normamps=0
New "Linecode.LC_MRT_TRF_28_4958_4" nphases=4 basefreq=60 r1=15000 x1=0 units=km normamps=0
New "Line.Resist_MTR_TRF_28_4958" phases=1 bus1="47891.1" bus2="MRT_47891TRF_28_4958.1" linecode="LC_MRT_TRF_28_4958_1" length=0.001 units=km
New "Reactor.TRF_28_4958" phases=1 bus1="ET28_4958.4" R=15 X=0 basefreq=60
New "Transformer.TRF_28_1990" phases=3 windings=2 buses=["325621.1.2.3" "ET28_1990.1.2.3.4"] conns=[Delta Wye] kvs=[] taps=[1.0 1.0] kvas=[75.0 75.0] %loadloss=3.840 %noloadloss=0.967
New "Reactor.TRF_28_1990" phases=1 bus1="ET28_1990.4" R=15 X=0 basefreq=60
New "Transformer.TRF_28_2283" phases=1 windings=3 buses=["MRT_376511TRF_28_2283.2" "ET28_2283.1.4" "ET28_2283.4.2" ] conns=[Wye Wye Wye] kvs=[13.8 0.44] taps=[1.0 1.0 1.0] kvas=[7.5 7.5 7.5] %loadloss=2.600 %noloadloss=0.667
New "Linecode.LC_MRT_TRF_28_2283_1" nphases=1 basefreq=60 r1=15000 x1=0 units=km normamps=0
New "Linecode.LC_MRT_TRF_28_2283_2" nphases=2 basefreq=60 r1=15000 x1=0 units=km normamps=0
New "Linecode.LC_MRT_TRF_28_2283_3" nphases=3 basefreq=60 r1=15000 x1=0 units=km normamps=0
New "Linecode.LC_MRT_TRF_28_2283_4" nphases=4 basefreq=60 r1=15000 x1=0 units=km normamps=0
New "Line.Resist_MTR_TRF_28_2283" phases=1 bus1="376511.2" bus2="MRT_376511TRF_28_2283.2" linecode="LC_MRT_TRF_28_2283_1" length=0.001 units=km
New "Reactor.TRF_28_2283" phases=1 bus1="ET28_2283.4" R=15 X=0 basefreq=60
New "Transformer.TRF_28_2303" phases=1 windings=3 buses=["MRT_110071TRF_28_2303.3" "ET28_2303.1.4" "ET28_2303.4.2" ] conns=[Wye Wye Wye] kvs=[13.8 0.44] taps=[1.0 1.0 1.0] kvas=[7.5 7.5 7.5] %loadloss=2.600 %noloadloss=0.667
New "Linecode.LC_MRT_TRF_28_2303_1" nphases=1 basefreq=60 r1=15000 x1=0 units=km normamps=0
New "Linecode.LC_MRT_TRF_28_2303_2" nphases=2 basefreq=60 r1=15000 x1=0 units=km normamps=0
New "Linecode.LC_MRT_TRF_28_2303_3" nphases=3 basefreq=60 r1=15000 x1=0 units=km normamps=0
New "Linecode.LC_MRT_TRF_28_2303_4" nphases=4 basefreq=60 r1=15000 x1=0 units=km normamps=0
New "Line.Resist_MTR_TRF_28_2303" phases=1 bus1="110071.3" bus2="MRT_110071TRF_28_2303.3" linecode="LC_MRT_TRF_28_2303_1" length=0.001 units=km
New "Reactor.TRF_28_2303" phases=1 bus1="ET28_2303.4" R=15 X=0 basefreq=60
New "Transformer.TRF_28_628" phases=1 windings=3 buses=["MRT_53641TRF_28_628.1" "ET28_628.1.4" "ET28_628.4.2" ] conns=[Wye Wye Wye] kvs=[13.8 0.44] taps=[1.0 1.0 1.0] kvas=[10.0 10.0 10.0] %loadloss=1.950 %noloadloss=0.500
New "Linecode.LC_MRT_TRF_28_628_1" nphases=1 basefreq=60 r1=15000 x1=0 units=km normamps=0
New "Linecode.LC_MRT_TRF_28_628_2" nphases=2 basefreq=60 r1=15000 x1=0 units=km normamps=0
New "Linecode.LC_MRT_TRF_28_628_3" nphases=3 basefreq=60 r1=15000 x1=0 units=km normamps=0
New "Linecode.LC_MRT_TRF_28_628_4" nphases=4 basefreq=60 r1=15000 x1=0 units=km normamps=0
New "Line.Resist_MTR_TRF_28_628" phases=1 bus1="53641.1" bus2="MRT_53641TRF_28_628.1" linecode="LC_MRT_TRF_28_628_1" length=0.001 units=km
New "Reactor.TRF_28_628" phases=1 bus1="ET28_628.4" R=15 X=0 basefreq=60
New "Transformer.TRF_28_5257" phases=3 windings=2 buses=["60881.1.2.3" "ET28_5257.1.2.3.4"] conns=[Delta Wye] kvs=[] taps=[1.0 1.0] kvas=[15.0 15.0] %loadloss=2.500 %noloadloss=0.633
New "Reactor.TRF_28_5257" phases=1 bus1="ET28_5257.4" R=15 X=0 basefreq=60
New "Transformer.TRF_28_3024" phases=1 windings=3 buses=["MRT_134721TRF_28_3024.1" "ET28_3024.1.4" "ET28_3024.4.2" ] conns=[Wye Wye Wye] kvs=[13.8 0.44] taps=[1.0 1.0 1.0] kvas=[25.0 25.0 25.0] %loadloss=1.560 %noloadloss=0.360
New "Linecode.LC_MRT_TRF_28_3024_1" nphases=1 basefreq=60 r1=15000 x1=0 units=km normamps=0
New "Linecode.LC_MRT_TRF_28_3024_2" nphases=2 basefreq=60 r1=15000 x1=0 units=km normamps=0
New "Linecode.LC_MRT_TRF_28_3024_3" nphases=3 basefreq=60 r1=15000 x1=0 units=km normamps=0
New "Linecode.LC_MRT_TRF_28_3024_4" nphases=4 basefreq=60 r1=15000 x1=0 units=km normamps=0
New "Line.Resist_MTR_TRF_28_3024" phases=1 bus1="134721.1" bus2="MRT_134721TRF_28_3024.1" linecode="LC_MRT_TRF_28_3024_1" length=0.001 units=km
New "Reactor.TRF_28_3024" phases=1 bus1="ET28_3024.4" R=15 X=0 basefreq=60
New "Transformer.TRF_28_3367" phases=1 windings=3 buses=["MRT_312901TRF_28_3367.1" "ET28_3367.1.4" "ET28_3367.4.2" ] conns=[Wye Wye Wye] kvs=[13.8 0.44] taps=[1.0 1.0 1.0] kvas=[5.0 5.0 5.0] %loadloss=2.100 %noloadloss=0.700
New "Linecode.LC_MRT_TRF_28_3367_1" nphases=1 basefreq=60 r1=15000 x1=0 units=km normamps=0
New "Linecode.LC_MRT_TRF_28_3367_2" nphases=2 basefreq=60 r1=15000 x1=0 units=km normamps=0
New "Linecode.LC_MRT_TRF_28_3367_3" nphases=3 basefreq=60 r1=15000 x1=0 units=km normamps=0
New "Linecode.LC_MRT_TRF_28_3367_4" nphases=4 basefreq=60 r1=15000 x1=0 units=km normamps=0
New "Line.Resist_MTR_TRF_28_3367" phases=1 bus1="312901.1" bus2="MRT_312901TRF_28_3367.1" linecode="LC_MRT_TRF_28_3367_1" length=0.001 units=km
New "Reactor.TRF_28_3367" phases=1 bus1="ET28_3367.4" R=15 X=0 basefreq=60
New "Transformer.TRF_28_694" phases=3 windings=2 buses=["134781.1.2.3" "ET28_694.1.2.3.4"] conns=[Delta Wye] kvs=[] taps=[1.0 1.0] kvas=[75.0 75.0] %loadloss=3.840 %noloadloss=0.967
New "Reactor.TRF_28_694" phases=1 bus1="ET28_694.4" R=15 X=0 basefreq=60
New "Transformer.TRF_28_4253" phases=3 windings=2 buses=["330201.1.2.3" "ET28_4253.1.2.3.4"] conns=[Delta Wye] kvs=[] taps=[1.0 1.0] kvas=[15.0 15.0] %loadloss=2.500 %noloadloss=0.633
New "Reactor.TRF_28_4253" phases=1 bus1="ET28_4253.4" R=15 X=0 basefreq=60
New "Transformer.TRF_28_2805" phases=1 windings=3 buses=["MRT_142231TRF_28_2805.3" "ET28_2805.1.4" "ET28_2805.4.2" ] conns=[Wye Wye Wye] kvs=[13.8 0.44] taps=[1.0 1.0 1.0] kvas=[15.0 15.0 15.0] %loadloss=1.767 %noloadloss=0.433
New "Linecode.LC_MRT_TRF_28_2805_1" nphases=1 basefreq=60 r1=15000 x1=0 units=km normamps=0
New "Linecode.LC_MRT_TRF_28_2805_2" nphases=2 basefreq=60 r1=15000 x1=0 units=km normamps=0
New "Linecode.LC_MRT_TRF_28_2805_3" nphases=3 basefreq=60 r1=15000 x1=0 units=km normamps=0
New "Linecode.LC_MRT_TRF_28_2805_4" nphases=4 basefreq=60 r1=15000 x1=0 units=km normamps=0
New "Line.Resist_MTR_TRF_28_2805" phases=1 bus1="142231.3" bus2="MRT_142231TRF_28_2805.3" linecode="LC_MRT_TRF_28_2805_1" length=0.001 units=km
New "Reactor.TRF_28_2805" phases=1 bus1="ET28_2805.4" R=15 X=0 basefreq=60
New "Transformer.TRF_28_1996" phases=1 windings=3 buses=["MRT_27811TRF_28_1996.1" "ET28_1996.1.4" "ET28_1996.4.2" ] conns=[Wye Wye Wye] kvs=[13.8 0.44] taps=[1.0 1.0 1.0] kvas=[10.0 10.0 10.0] %loadloss=1.950 %noloadloss=0.500
New "Linecode.LC_MRT_TRF_28_1996_1" nphases=1 basefreq=60 r1=15000 x1=0 units=km normamps=0
New "Linecode.LC_MRT_TRF_28_1996_2" nphases=2 basefreq=60 r1=15000 x1=0 units=km normamps=0
New "Linecode.LC_MRT_TRF_28_1996_3" nphases=3 basefreq=60 r1=15000 x1=0 units=km normamps=0
New "Linecode.LC_MRT_TRF_28_1996_4" nphases=4 basefreq=60 r1=15000 x1=0 units=km normamps=0
New "Line.Resist_MTR_TRF_28_1996" phases=1 bus1="27811.1" bus2="MRT_27811TRF_28_1996.1" linecode="LC_MRT_TRF_28_1996_1" length=0.001 units=km
New "Reactor.TRF_28_1996" phases=1 bus1="ET28_1996.4" R=15 X=0 basefreq=60
New "Transformer.TRF_28_5398" phases=3 windings=2 buses=["3081.1.2.3" "ET28_5398.1.2.3.4"] conns=[Delta Wye] kvs=[] taps=[1.0 1.0] kvas=[15.0 15.0] %loadloss=2.500 %noloadloss=0.633
New "Reactor.TRF_28_5398" phases=1 bus1="ET28_5398.4" R=15 X=0 basefreq=60
New "Transformer.TRF_28_198" phases=1 windings=3 buses=["MRT_135611TRF_28_198.2" "ET28_198.1.4" "ET28_198.4.2" ] conns=[Wye Wye Wye] kvs=[13.8 0.44] taps=[1.0 1.0 1.0] kvas=[15.0 15.0 15.0] %loadloss=1.767 %noloadloss=0.433
New "Linecode.LC_MRT_TRF_28_198_1" nphases=1 basefreq=60 r1=15000 x1=0 units=km normamps=0
New "Linecode.LC_MRT_TRF_28_198_2" nphases=2 basefreq=60 r1=15000 x1=0 units=km normamps=0
New "Linecode.LC_MRT_TRF_28_198_3" nphases=3 basefreq=60 r1=15000 x1=0 units=km normamps=0
New "Linecode.LC_MRT_TRF_28_198_4" nphases=4 basefreq=60 r1=15000 x1=0 units=km normamps=0
New "Line.Resist_MTR_TRF_28_198" phases=1 bus1="135611.2" bus2="MRT_135611TRF_28_198.2" linecode="LC_MRT_TRF_28_198_1" length=0.001 units=km
New "Reactor.TRF_28_198" phases=1 bus1="ET28_198.4" R=15 X=0 basefreq=60
New "Transformer.TRF_28_654" phases=1 windings=3 buses=["MRT_21171TRF_28_654.1" "ET28_654.1.4" "ET28_654.4.2" ] conns=[Wye Wye Wye] kvs=[13.8 0.44] taps=[1.0 1.0 1.0] kvas=[15.0 15.0 15.0] %loadloss=1.767 %noloadloss=0.433
New "Linecode.LC_MRT_TRF_28_654_1" nphases=1 basefreq=60 r1=15000 x1=0 units=km normamps=0
New "Linecode.LC_MRT_TRF_28_654_2" nphases=2 basefreq=60 r1=15000 x1=0 units=km normamps=0
New "Linecode.LC_MRT_TRF_28_654_3" nphases=3 basefreq=60 r1=15000 x1=0 units=km normamps=0
New "Linecode.LC_MRT_TRF_28_654_4" nphases=4 basefreq=60 r1=15000 x1=0 units=km normamps=0
New "Line.Resist_MTR_TRF_28_654" phases=1 bus1="21171.1" bus2="MRT_21171TRF_28_654.1" linecode="LC_MRT_TRF_28_654_1" length=0.001 units=km
New "Reactor.TRF_28_654" phases=1 bus1="ET28_654.4" R=15 X=0 basefreq=60
New "Transformer.TRF_28_5205" phases=1 windings=3 buses=["MRT_675941TRF_28_5205.1" "ET28_5205.1.4" "ET28_5205.4.2" ] conns=[Wye Wye Wye] kvs=[13.8 0.44] taps=[1.0 1.0 1.0] kvas=[25.0 25.0 25.0] %loadloss=1.560 %noloadloss=0.360
New "Linecode.LC_MRT_TRF_28_5205_1" nphases=1 basefreq=60 r1=15000 x1=0 units=km normamps=0
New "Linecode.LC_MRT_TRF_28_5205_2" nphases=2 basefreq=60 r1=15000 x1=0 units=km normamps=0
New "Linecode.LC_MRT_TRF_28_5205_3" nphases=3 basefreq=60 r1=15000 x1=0 units=km normamps=0
New "Linecode.LC_MRT_TRF_28_5205_4" nphases=4 basefreq=60 r1=15000 x1=0 units=km normamps=0
New "Line.Resist_MTR_TRF_28_5205" phases=1 bus1="675941.1" bus2="MRT_675941TRF_28_5205.1" linecode="LC_MRT_TRF_28_5205_1" length=0.001 units=km
New "Reactor.TRF_28_5205" phases=1 bus1="ET28_5205.4" R=15 X=0 basefreq=60
New "Transformer.TRF_28_5431" phases=1 windings=3 buses=["MRT_693361TRF_28_5431.1" "ET28_5431.1.4" "ET28_5431.4.2" ] conns=[Wye Wye Wye] kvs=[13.8 0.44] taps=[1.0 1.0 1.0] kvas=[15.0 15.0 15.0] %loadloss=1.767 %noloadloss=0.433
New "Linecode.LC_MRT_TRF_28_5431_1" nphases=1 basefreq=60 r1=15000 x1=0 units=km normamps=0
New "Linecode.LC_MRT_TRF_28_5431_2" nphases=2 basefreq=60 r1=15000 x1=0 units=km normamps=0
New "Linecode.LC_MRT_TRF_28_5431_3" nphases=3 basefreq=60 r1=15000 x1=0 units=km normamps=0
New "Linecode.LC_MRT_TRF_28_5431_4" nphases=4 basefreq=60 r1=15000 x1=0 units=km normamps=0
New "Line.Resist_MTR_TRF_28_5431" phases=1 bus1="693361.1" bus2="MRT_693361TRF_28_5431.1" linecode="LC_MRT_TRF_28_5431_1" length=0.001 units=km
New "Reactor.TRF_28_5431" phases=1 bus1="ET28_5431.4" R=15 X=0 basefreq=60
New "Transformer.TRF_28_3058" phases=1 windings=3 buses=["MRT_59281TRF_28_3058.3" "ET28_3058.1.4" "ET28_3058.4.2" ] conns=[Wye Wye Wye] kvs=[13.8 0.44] taps=[1.0 1.0 1.0] kvas=[10.0 10.0 10.0] %loadloss=1.950 %noloadloss=0.500
New "Linecode.LC_MRT_TRF_28_3058_1" nphases=1 basefreq=60 r1=15000 x1=0 units=km normamps=0
New "Linecode.LC_MRT_TRF_28_3058_2" nphases=2 basefreq=60 r1=15000 x1=0 units=km normamps=0
New "Linecode.LC_MRT_TRF_28_3058_3" nphases=3 basefreq=60 r1=15000 x1=0 units=km normamps=0
New "Linecode.LC_MRT_TRF_28_3058_4" nphases=4 basefreq=60 r1=15000 x1=0 units=km normamps=0
New "Line.Resist_MTR_TRF_28_3058" phases=1 bus1="59281.3" bus2="MRT_59281TRF_28_3058.3" linecode="LC_MRT_TRF_28_3058_1" length=0.001 units=km
New "Reactor.TRF_28_3058" phases=1 bus1="ET28_3058.4" R=15 X=0 basefreq=60
New "Transformer.TRF_28_5324" phases=3 windings=2 buses=["685301.1.2.3" "ET28_5324.1.2.3.4"] conns=[Delta Wye] kvs=[] taps=[1.0 1.0] kvas=[30.0 30.0] %loadloss=2.100 %noloadloss=0.533
New "Reactor.TRF_28_5324" phases=1 bus1="ET28_5324.4" R=15 X=0 basefreq=60
New "Transformer.TRF_28_5168" phases=3 windings=2 buses=["740951.1.2.3" "ET28_5168.1.2.3.4"] conns=[Delta Wye] kvs=[] taps=[1.0 1.0] kvas=[45.0 45.0] %loadloss=1.867 %noloadloss=0.478
New "Reactor.TRF_28_5168" phases=1 bus1="ET28_5168.4" R=15 X=0 basefreq=60
New "Transformer.TRF_28_5100" phases=1 windings=3 buses=["MRT_141561TRF_28_5100.1" "ET28_5100.1.4" "ET28_5100.4.2" ] conns=[Wye Wye Wye] kvs=[13.8 0.44] taps=[1.0 1.0 1.0] kvas=[10.0 10.0 10.0] %loadloss=1.950 %noloadloss=0.500
New "Linecode.LC_MRT_TRF_28_5100_1" nphases=1 basefreq=60 r1=15000 x1=0 units=km normamps=0
New "Linecode.LC_MRT_TRF_28_5100_2" nphases=2 basefreq=60 r1=15000 x1=0 units=km normamps=0
New "Linecode.LC_MRT_TRF_28_5100_3" nphases=3 basefreq=60 r1=15000 x1=0 units=km normamps=0
New "Linecode.LC_MRT_TRF_28_5100_4" nphases=4 basefreq=60 r1=15000 x1=0 units=km normamps=0
New "Line.Resist_MTR_TRF_28_5100" phases=1 bus1="141561.1" bus2="MRT_141561TRF_28_5100.1" linecode="LC_MRT_TRF_28_5100_1" length=0.001 units=km
New "Reactor.TRF_28_5100" phases=1 bus1="ET28_5100.4" R=15 X=0 basefreq=60
New "Transformer.TRF_17_4963" phases=1 windings=2 buses=["MRT_325671TRF_17_4963.1" "ET17_4963.1.4" ] conns=[Wye Wye] kvs=[] taps=[1.0 1.0] kvas=[3.0 3.0] %loadloss=3.500 %noloadloss=1.167
New "Linecode.LC_MRT_TRF_17_4963_1" nphases=1 basefreq=60 r1=15000 x1=0 units=km normamps=0
New "Linecode.LC_MRT_TRF_17_4963_2" nphases=2 basefreq=60 r1=15000 x1=0 units=km normamps=0
New "Linecode.LC_MRT_TRF_17_4963_3" nphases=3 basefreq=60 r1=15000 x1=0 units=km normamps=0
New "Linecode.LC_MRT_TRF_17_4963_4" nphases=4 basefreq=60 r1=15000 x1=0 units=km normamps=0
New "Line.Resist_MTR_TRF_17_4963" phases=1 bus1="325671.1" bus2="MRT_325671TRF_17_4963.1" linecode="LC_MRT_TRF_17_4963_1" length=0.001 units=km
New "Reactor.TRF_17_4963" phases=1 bus1="ET17_4963.4" R=15 X=0 basefreq=60
New "Transformer.TRF_28_4874" phases=1 windings=3 buses=["MRT_43811TRF_28_4874.2" "ET28_4874.1.4" "ET28_4874.4.2" ] conns=[Wye Wye Wye] kvs=[13.8 0.44] taps=[1.0 1.0 1.0] kvas=[15.0 15.0 15.0] %loadloss=1.767 %noloadloss=0.433
New "Linecode.LC_MRT_TRF_28_4874_1" nphases=1 basefreq=60 r1=15000 x1=0 units=km normamps=0
New "Linecode.LC_MRT_TRF_28_4874_2" nphases=2 basefreq=60 r1=15000 x1=0 units=km normamps=0
New "Linecode.LC_MRT_TRF_28_4874_3" nphases=3 basefreq=60 r1=15000 x1=0 units=km normamps=0
New "Linecode.LC_MRT_TRF_28_4874_4" nphases=4 basefreq=60 r1=15000 x1=0 units=km normamps=0
New "Line.Resist_MTR_TRF_28_4874" phases=1 bus1="43811.2" bus2="MRT_43811TRF_28_4874.2" linecode="LC_MRT_TRF_28_4874_1" length=0.001 units=km
New "Reactor.TRF_28_4874" phases=1 bus1="ET28_4874.4" R=15 X=0 basefreq=60
New "Transformer.TRF_28_4900" phases=1 windings=3 buses=["MRT_38641TRF_28_4900.1" "ET28_4900.1.4" "ET28_4900.4.2" ] conns=[Wye Wye Wye] kvs=[13.8 0.44] taps=[1.0 1.0 1.0] kvas=[10.0 10.0 10.0] %loadloss=1.950 %noloadloss=0.500
New "Linecode.LC_MRT_TRF_28_4900_1" nphases=1 basefreq=60 r1=15000 x1=0 units=km normamps=0
New "Linecode.LC_MRT_TRF_28_4900_2" nphases=2 basefreq=60 r1=15000 x1=0 units=km normamps=0
New "Linecode.LC_MRT_TRF_28_4900_3" nphases=3 basefreq=60 r1=15000 x1=0 units=km normamps=0
New "Linecode.LC_MRT_TRF_28_4900_4" nphases=4 basefreq=60 r1=15000 x1=0 units=km normamps=0
New "Line.Resist_MTR_TRF_28_4900" phases=1 bus1="38641.1" bus2="MRT_38641TRF_28_4900.1" linecode="LC_MRT_TRF_28_4900_1" length=0.001 units=km
New "Reactor.TRF_28_4900" phases=1 bus1="ET28_4900.4" R=15 X=0 basefreq=60
New "Transformer.TRF_28_4801" phases=1 windings=3 buses=["MRT_719591TRF_28_4801.3" "ET28_4801.1.4" "ET28_4801.4.2" ] conns=[Wye Wye Wye] kvs=[13.8 0.44] taps=[1.0 1.0 1.0] kvas=[25.0 25.0 25.0] %loadloss=1.560 %noloadloss=0.360
New "Linecode.LC_MRT_TRF_28_4801_1" nphases=1 basefreq=60 r1=15000 x1=0 units=km normamps=0
New "Linecode.LC_MRT_TRF_28_4801_2" nphases=2 basefreq=60 r1=15000 x1=0 units=km normamps=0
New "Linecode.LC_MRT_TRF_28_4801_3" nphases=3 basefreq=60 r1=15000 x1=0 units=km normamps=0
New "Linecode.LC_MRT_TRF_28_4801_4" nphases=4 basefreq=60 r1=15000 x1=0 units=km normamps=0
New "Line.Resist_MTR_TRF_28_4801" phases=1 bus1="719591.3" bus2="MRT_719591TRF_28_4801.3" linecode="LC_MRT_TRF_28_4801_1" length=0.001 units=km
New "Reactor.TRF_28_4801" phases=1 bus1="ET28_4801.4" R=15 X=0 basefreq=60
New "Transformer.TRF_28_631" phases=1 windings=3 buses=["MRT_43031TRF_28_631.1" "ET28_631.1.4" "ET28_631.4.2" ] conns=[Wye Wye Wye] kvs=[13.8 0.44] taps=[1.0 1.0 1.0] kvas=[25.0 25.0 25.0] %loadloss=1.560 %noloadloss=0.360
New "Linecode.LC_MRT_TRF_28_631_1" nphases=1 basefreq=60 r1=15000 x1=0 units=km normamps=0
New "Linecode.LC_MRT_TRF_28_631_2" nphases=2 basefreq=60 r1=15000 x1=0 units=km normamps=0
New "Linecode.LC_MRT_TRF_28_631_3" nphases=3 basefreq=60 r1=15000 x1=0 units=km normamps=0
New "Linecode.LC_MRT_TRF_28_631_4" nphases=4 basefreq=60 r1=15000 x1=0 units=km normamps=0
New "Line.Resist_MTR_TRF_28_631" phases=1 bus1="43031.1" bus2="MRT_43031TRF_28_631.1" linecode="LC_MRT_TRF_28_631_1" length=0.001 units=km
New "Reactor.TRF_28_631" phases=1 bus1="ET28_631.4" R=15 X=0 basefreq=60
New "Transformer.TRF_28_4828" phases=1 windings=3 buses=["MRT_717741TRF_28_4828.3" "ET28_4828.1.4" "ET28_4828.4.2" ] conns=[Wye Wye Wye] kvs=[13.8 0.44] taps=[1.0 1.0 1.0] kvas=[10.0 10.0 10.0] %loadloss=1.950 %noloadloss=0.500
New "Linecode.LC_MRT_TRF_28_4828_1" nphases=1 basefreq=60 r1=15000 x1=0 units=km normamps=0
New "Linecode.LC_MRT_TRF_28_4828_2" nphases=2 basefreq=60 r1=15000 x1=0 units=km normamps=0
New "Linecode.LC_MRT_TRF_28_4828_3" nphases=3 basefreq=60 r1=15000 x1=0 units=km normamps=0
New "Linecode.LC_MRT_TRF_28_4828_4" nphases=4 basefreq=60 r1=15000 x1=0 units=km normamps=0
New "Line.Resist_MTR_TRF_28_4828" phases=1 bus1="717741.3" bus2="MRT_717741TRF_28_4828.3" linecode="LC_MRT_TRF_28_4828_1" length=0.001 units=km
New "Reactor.TRF_28_4828" phases=1 bus1="ET28_4828.4" R=15 X=0 basefreq=60
New "Transformer.TRF_28_1120" phases=1 windings=3 buses=["MRT_38721TRF_28_1120.1" "ET28_1120.1.4" "ET28_1120.4.2" ] conns=[Wye Wye Wye] kvs=[13.8 0.44] taps=[1.0 1.0 1.0] kvas=[10.0 10.0 10.0] %loadloss=1.950 %noloadloss=0.500
New "Linecode.LC_MRT_TRF_28_1120_1" nphases=1 basefreq=60 r1=15000 x1=0 units=km normamps=0
New "Linecode.LC_MRT_TRF_28_1120_2" nphases=2 basefreq=60 r1=15000 x1=0 units=km normamps=0
New "Linecode.LC_MRT_TRF_28_1120_3" nphases=3 basefreq=60 r1=15000 x1=0 units=km normamps=0
New "Linecode.LC_MRT_TRF_28_1120_4" nphases=4 basefreq=60 r1=15000 x1=0 units=km normamps=0
New "Line.Resist_MTR_TRF_28_1120" phases=1 bus1="38721.1" bus2="MRT_38721TRF_28_1120.1" linecode="LC_MRT_TRF_28_1120_1" length=0.001 units=km
New "Reactor.TRF_28_1120" phases=1 bus1="ET28_1120.4" R=15 X=0 basefreq=60
New "Transformer.TRF_28_3397" phases=1 windings=3 buses=["MRT_199761TRF_28_3397.1" "ET28_3397.1.4" "ET28_3397.4.2" ] conns=[Wye Wye Wye] kvs=[13.8 0.44] taps=[1.0 1.0 1.0] kvas=[10.0 10.0 10.0] %loadloss=1.950 %noloadloss=0.500
New "Linecode.LC_MRT_TRF_28_3397_1" nphases=1 basefreq=60 r1=15000 x1=0 units=km normamps=0
New "Linecode.LC_MRT_TRF_28_3397_2" nphases=2 basefreq=60 r1=15000 x1=0 units=km normamps=0
New "Linecode.LC_MRT_TRF_28_3397_3" nphases=3 basefreq=60 r1=15000 x1=0 units=km normamps=0
New "Linecode.LC_MRT_TRF_28_3397_4" nphases=4 basefreq=60 r1=15000 x1=0 units=km normamps=0
New "Line.Resist_MTR_TRF_28_3397" phases=1 bus1="199761.1" bus2="MRT_199761TRF_28_3397.1" linecode="LC_MRT_TRF_28_3397_1" length=0.001 units=km
New "Reactor.TRF_28_3397" phases=1 bus1="ET28_3397.4" R=15 X=0 basefreq=60
New "Transformer.TRF_28_5380" phases=1 windings=3 buses=["MRT_72491TRF_28_5380.1" "ET28_5380.1.4" "ET28_5380.4.2" ] conns=[Wye Wye Wye] kvs=[13.8 0.44] taps=[1.0 1.0 1.0] kvas=[10.0 10.0 10.0] %loadloss=1.950 %noloadloss=0.500
New "Linecode.LC_MRT_TRF_28_5380_1" nphases=1 basefreq=60 r1=15000 x1=0 units=km normamps=0
New "Linecode.LC_MRT_TRF_28_5380_2" nphases=2 basefreq=60 r1=15000 x1=0 units=km normamps=0
New "Linecode.LC_MRT_TRF_28_5380_3" nphases=3 basefreq=60 r1=15000 x1=0 units=km normamps=0
New "Linecode.LC_MRT_TRF_28_5380_4" nphases=4 basefreq=60 r1=15000 x1=0 units=km normamps=0
New "Line.Resist_MTR_TRF_28_5380" phases=1 bus1="72491.1" bus2="MRT_72491TRF_28_5380.1" linecode="LC_MRT_TRF_28_5380_1" length=0.001 units=km
New "Reactor.TRF_28_5380" phases=1 bus1="ET28_5380.4" R=15 X=0 basefreq=60
New "Transformer.TRF_28_4545" phases=1 windings=3 buses=["MRT_719421TRF_28_4545.3" "ET28_4545.1.4" "ET28_4545.4.2" ] conns=[Wye Wye Wye] kvs=[13.8 0.44] taps=[1.0 1.0 1.0] kvas=[25.0 25.0 25.0] %loadloss=1.560 %noloadloss=0.360
New "Linecode.LC_MRT_TRF_28_4545_1" nphases=1 basefreq=60 r1=15000 x1=0 units=km normamps=0
New "Linecode.LC_MRT_TRF_28_4545_2" nphases=2 basefreq=60 r1=15000 x1=0 units=km normamps=0
New "Linecode.LC_MRT_TRF_28_4545_3" nphases=3 basefreq=60 r1=15000 x1=0 units=km normamps=0
New "Linecode.LC_MRT_TRF_28_4545_4" nphases=4 basefreq=60 r1=15000 x1=0 units=km normamps=0
New "Line.Resist_MTR_TRF_28_4545" phases=1 bus1="719421.3" bus2="MRT_719421TRF_28_4545.3" linecode="LC_MRT_TRF_28_4545_1" length=0.001 units=km
New "Reactor.TRF_28_4545" phases=1 bus1="ET28_4545.4" R=15 X=0 basefreq=60
New "Transformer.TRF_28_700" phases=1 windings=3 buses=["MRT_13031TRF_28_700.3" "ET28_700.1.4" "ET28_700.4.2" ] conns=[Wye Wye Wye] kvs=[13.8 0.44] taps=[1.0 1.0 1.0] kvas=[37.5 37.5 37.5] %loadloss=1.413 %noloadloss=0.360
New "Linecode.LC_MRT_TRF_28_700_1" nphases=1 basefreq=60 r1=15000 x1=0 units=km normamps=0
New "Linecode.LC_MRT_TRF_28_700_2" nphases=2 basefreq=60 r1=15000 x1=0 units=km normamps=0
New "Linecode.LC_MRT_TRF_28_700_3" nphases=3 basefreq=60 r1=15000 x1=0 units=km normamps=0
New "Linecode.LC_MRT_TRF_28_700_4" nphases=4 basefreq=60 r1=15000 x1=0 units=km normamps=0
New "Line.Resist_MTR_TRF_28_700" phases=1 bus1="13031.3" bus2="MRT_13031TRF_28_700.3" linecode="LC_MRT_TRF_28_700_1" length=0.001 units=km
New "Reactor.TRF_28_700" phases=1 bus1="ET28_700.4" R=15 X=0 basefreq=60
New "Transformer.TRF_28_2706" phases=3 windings=2 buses=["753871.1.2.3" "ET28_2706.1.2.3.4"] conns=[Delta Wye] kvs=[] taps=[1.0 1.0] kvas=[30.0 30.0] %loadloss=2.100 %noloadloss=0.533
New "Reactor.TRF_28_2706" phases=1 bus1="ET28_2706.4" R=15 X=0 basefreq=60
New "Transformer.TRF_28_4965" phases=1 windings=3 buses=["MRT_42881TRF_28_4965.2" "ET28_4965.1.4" "ET28_4965.4.2" ] conns=[Wye Wye Wye] kvs=[13.8 0.44] taps=[1.0 1.0 1.0] kvas=[10.0 10.0 10.0] %loadloss=1.950 %noloadloss=0.500
New "Linecode.LC_MRT_TRF_28_4965_1" nphases=1 basefreq=60 r1=15000 x1=0 units=km normamps=0
New "Linecode.LC_MRT_TRF_28_4965_2" nphases=2 basefreq=60 r1=15000 x1=0 units=km normamps=0
New "Linecode.LC_MRT_TRF_28_4965_3" nphases=3 basefreq=60 r1=15000 x1=0 units=km normamps=0
New "Linecode.LC_MRT_TRF_28_4965_4" nphases=4 basefreq=60 r1=15000 x1=0 units=km normamps=0
New "Line.Resist_MTR_TRF_28_4965" phases=1 bus1="42881.2" bus2="MRT_42881TRF_28_4965.2" linecode="LC_MRT_TRF_28_4965_1" length=0.001 units=km
New "Reactor.TRF_28_4965" phases=1 bus1="ET28_4965.4" R=15 X=0 basefreq=60
New "Transformer.TRF_28_637" phases=1 windings=3 buses=["MRT_325691TRF_28_637.1" "ET28_637.1.4" "ET28_637.4.2" ] conns=[Wye Wye Wye] kvs=[13.8 0.44] taps=[1.0 1.0 1.0] kvas=[15.0 15.0 15.0] %loadloss=1.767 %noloadloss=0.433
New "Linecode.LC_MRT_TRF_28_637_1" nphases=1 basefreq=60 r1=15000 x1=0 units=km normamps=0
New "Linecode.LC_MRT_TRF_28_637_2" nphases=2 basefreq=60 r1=15000 x1=0 units=km normamps=0
New "Linecode.LC_MRT_TRF_28_637_3" nphases=3 basefreq=60 r1=15000 x1=0 units=km normamps=0
New "Linecode.LC_MRT_TRF_28_637_4" nphases=4 basefreq=60 r1=15000 x1=0 units=km normamps=0
New "Line.Resist_MTR_TRF_28_637" phases=1 bus1="325691.1" bus2="MRT_325691TRF_28_637.1" linecode="LC_MRT_TRF_28_637_1" length=0.001 units=km
New "Reactor.TRF_28_637" phases=1 bus1="ET28_637.4" R=15 X=0 basefreq=60
New "Transformer.TRF_2_1997" phases=1 windings=3 buses=["MRT_11131TRF_2_1997.3" "ET2_1997.1.4" "ET2_1997.4.2" ] conns=[Wye Wye Wye] kvs=[13.8 0.44] taps=[1.0 1.0 1.0] kvas=[10.0 10.0 10.0] %loadloss=1.950 %noloadloss=0.500
New "Linecode.LC_MRT_TRF_2_1997_1" nphases=1 basefreq=60 r1=15000 x1=0 units=km normamps=0
New "Linecode.LC_MRT_TRF_2_1997_2" nphases=2 basefreq=60 r1=15000 x1=0 units=km normamps=0
New "Linecode.LC_MRT_TRF_2_1997_3" nphases=3 basefreq=60 r1=15000 x1=0 units=km normamps=0
New "Linecode.LC_MRT_TRF_2_1997_4" nphases=4 basefreq=60 r1=15000 x1=0 units=km normamps=0
New "Line.Resist_MTR_TRF_2_1997" phases=1 bus1="11131.3" bus2="MRT_11131TRF_2_1997.3" linecode="LC_MRT_TRF_2_1997_1" length=0.001 units=km
New "Reactor.TRF_2_1997" phases=1 bus1="ET2_1997.4" R=15 X=0 basefreq=60
New "Transformer.TRF_28_4544" phases=1 windings=3 buses=["MRT_11071TRF_28_4544.1" "ET28_4544.1.4" "ET28_4544.4.2" ] conns=[Wye Wye Wye] kvs=[13.8 0.44] taps=[1.0 1.0 1.0] kvas=[25.0 25.0 25.0] %loadloss=1.560 %noloadloss=0.360
New "Linecode.LC_MRT_TRF_28_4544_1" nphases=1 basefreq=60 r1=15000 x1=0 units=km normamps=0
New "Linecode.LC_MRT_TRF_28_4544_2" nphases=2 basefreq=60 r1=15000 x1=0 units=km normamps=0
New "Linecode.LC_MRT_TRF_28_4544_3" nphases=3 basefreq=60 r1=15000 x1=0 units=km normamps=0
New "Linecode.LC_MRT_TRF_28_4544_4" nphases=4 basefreq=60 r1=15000 x1=0 units=km normamps=0
New "Line.Resist_MTR_TRF_28_4544" phases=1 bus1="11071.1" bus2="MRT_11071TRF_28_4544.1" linecode="LC_MRT_TRF_28_4544_1" length=0.001 units=km
New "Reactor.TRF_28_4544" phases=1 bus1="ET28_4544.4" R=15 X=0 basefreq=60
New "Transformer.TRF_28_4444" phases=1 windings=3 buses=["MRT_365821TRF_28_4444.1" "ET28_4444.1.4" "ET28_4444.4.2" ] conns=[Wye Wye Wye] kvs=[13.8 0.44] taps=[1.0 1.0 1.0] kvas=[15.0 15.0 15.0] %loadloss=1.767 %noloadloss=0.433
New "Linecode.LC_MRT_TRF_28_4444_1" nphases=1 basefreq=60 r1=15000 x1=0 units=km normamps=0
New "Linecode.LC_MRT_TRF_28_4444_2" nphases=2 basefreq=60 r1=15000 x1=0 units=km normamps=0
New "Linecode.LC_MRT_TRF_28_4444_3" nphases=3 basefreq=60 r1=15000 x1=0 units=km normamps=0
New "Linecode.LC_MRT_TRF_28_4444_4" nphases=4 basefreq=60 r1=15000 x1=0 units=km normamps=0
New "Line.Resist_MTR_TRF_28_4444" phases=1 bus1="365821.1" bus2="MRT_365821TRF_28_4444.1" linecode="LC_MRT_TRF_28_4444_1" length=0.001 units=km
New "Reactor.TRF_28_4444" phases=1 bus1="ET28_4444.4" R=15 X=0 basefreq=60
New "Transformer.TRF_28_4437" phases=3 windings=2 buses=["497171.1.2.3" "ET28_4437.1.2.3.4"] conns=[Delta Wye] kvs=[] taps=[1.0 1.0] kvas=[30.0 30.0] %loadloss=2.100 %noloadloss=0.533
New "Reactor.TRF_28_4437" phases=1 bus1="ET28_4437.4" R=15 X=0 basefreq=60
New "Transformer.TRF_28_3261" phases=3 windings=2 buses=["657361.1.2.3" "ET28_3261.1.2.3.4"] conns=[Delta Wye] kvs=[] taps=[1.0 1.0] kvas=[112.5 112.5] %loadloss=1.476 %noloadloss=0.378
New "Reactor.TRF_28_3261" phases=1 bus1="ET28_3261.4" R=15 X=0 basefreq=60
New "Transformer.TRF_28_1474" phases=1 windings=3 buses=["MRT_56431TRF_28_1474.1" "ET28_1474.1.4" "ET28_1474.4.2" ] conns=[Wye Wye Wye] kvs=[13.8 0.44] taps=[1.0 1.0 1.0] kvas=[10.0 10.0 10.0] %loadloss=1.950 %noloadloss=0.500
New "Linecode.LC_MRT_TRF_28_1474_1" nphases=1 basefreq=60 r1=15000 x1=0 units=km normamps=0
New "Linecode.LC_MRT_TRF_28_1474_2" nphases=2 basefreq=60 r1=15000 x1=0 units=km normamps=0
New "Linecode.LC_MRT_TRF_28_1474_3" nphases=3 basefreq=60 r1=15000 x1=0 units=km normamps=0
New "Linecode.LC_MRT_TRF_28_1474_4" nphases=4 basefreq=60 r1=15000 x1=0 units=km normamps=0
New "Line.Resist_MTR_TRF_28_1474" phases=1 bus1="56431.1" bus2="MRT_56431TRF_28_1474.1" linecode="LC_MRT_TRF_28_1474_1" length=0.001 units=km
New "Reactor.TRF_28_1474" phases=1 bus1="ET28_1474.4" R=15 X=0 basefreq=60
New "Transformer.TRF_28_4119" phases=3 windings=2 buses=["645321.1.2.3" "ET28_4119.1.2.3.4"] conns=[Delta Wye] kvs=[] taps=[1.0 1.0] kvas=[30.0 30.0] %loadloss=2.100 %noloadloss=0.533
New "Reactor.TRF_28_4119" phases=1 bus1="ET28_4119.4" R=15 X=0 basefreq=60