New "Line.SBT_34706" phases=3 bus1="BT59481.1.2.4" bus2="BT59502.1.2.4" linecode="44_3" length=0.09566 units=km
New "Line.SBT_34707" phases=3 bus1="BT59502.1.2.4" bus2="BT804551.1.2.4" linecode="44_3" length=0.10270 units=km
New "Line.SBT_34708" phases=3 bus1="BT804551.1.2.4" bus2="BT74621.1.2.4" linecode="44_3" length=0.05866 units=km
New "Line.SBT_34168" phases=3 bus1="BT797871.1.2.4" bus2="ET28_6194.1.2.4" linecode="59_3" length=0.07149 units=km
New "Line.SBT_34169" phases=3 bus1="BT797881.1.2.4" bus2="BT797871.1.2.4" linecode="59_3" length=0.03564 units=km
New "Line.SBT_33829" phases=2 bus1="BT60391.1.4" bus2="BT636111.1.4" linecode="62_2" length=0.09986 units=km
New "Line.SBT_33830" phases=3 bus1="BT60392.1.2.4" bus2="BT60381.1.2.4" linecode="44_3" length=0.07212 units=km
New "Line.SBT_33831" phases=2 bus1="BT636111.1.4" bus2="BT795201.1.4" linecode="62_2" length=0.09434 units=km
New "Line.SBT_33832" phases=2 bus1="BT795201.1.4" bus2="ET28_6155.1.4" linecode="62_2" length=0.03482 units=km
New "Line.SBT_33659" phases=4 bus1="BT793451.1.2.3.4" bus2="ET28_6095.1.2.3.4" linecode="74_4" length=0.05404 units=km
New "Line.SBT_33637" phases=4 bus1="BT793221.1.2.3.4" bus2="ET28_6018.1.2.3.4" linecode="74_4" length=0.03593 units=km
New "Line.SBT_33323" phases=3 bus1="BT42911.1.2.4" bus2="ET28_6069.1.2.4" linecode="44_3" length=0.08319 units=km
New "Line.SBT_33325" phases=3 bus1="BT42932.1.2.4" bus2="ET28_6069.1.2.4" linecode="44_3" length=0.08911 units=km
New "Line.SBT_33326" phases=2 bus1="BT440681.1.4" bus2="BT42932.1.4" linecode="60_2" length=0.11638 units=km
New "Line.SBT_33268" phases=2 bus1="BT790251.1.4" bus2="ET28_5757.1.4" linecode="62_2" length=0.07512 units=km
New "Line.SBT_33081" phases=3 bus1="BT47191.1.2.4" bus2="BT47201.1.2.4" linecode="44_3" length=0.09064 units=km
New "Line.SBT_32313" phases=3 bus1="BT141511.1.2.4" bus2="BT779041.1.2.4" linecode="44_3" length=0.08635 units=km
New "Line.SBT_32312" phases=3 bus1="BT652841.1.2.4" bus2="BT685271.1.2.4" linecode="59_3" length=0.09713 units=km
New "Line.SBT_31968" phases=3 bus1="BT774141.1.2.4" bus2="BT736161.1.2.4" linecode="59_3" length=0.06367 units=km
New "Line.SBT_31974" phases=2 bus1="BT774201.1.4" bus2="ET28_5756.1.4" linecode="62_2" length=0.07558 units=km
New "Line.SBT_31144" phases=4 bus1="BT60852.1.2.3.4" bus2="ET28_1990.1.2.3.4" linecode="74_4" length=0.05740 units=km
New "Line.SBT_30827" phases=3 bus1="BT47882.1.2.4" bus2="ET28_1993.1.2.4" linecode="76_3" length=0.06230 units=km
New "Line.SBT_11502" phases=3 bus1="BT43841.1.2.4" bus2="BT43831.1.2.4" linecode="44_3" length=0.07603 units=km
New "Line.SBT_14551" phases=4 bus1="BT493021.1.2.3.4" bus2="ET28_3960.1.2.3.4" linecode="75_4" length=0.02953 units=km
New "Line.SBT_29893" phases=4 bus1="BT756031.1.2.3.4" bus2="ET28_5398.1.2.3.4" linecode="97_4" length=0.04765 units=km
New "Line.SBT_29611" phases=2 bus1="BT59371.1.4" bus2="BT753801.1.4" linecode="60_2" length=0.05052 units=km
New "Line.SBT_29614" phases=4 bus1="BT753901.1.2.3.4" bus2="BT28051.1.2.3.4" linecode="97_4" length=0.08158 units=km
New "Line.SBT_29613" phases=4 bus1="BT753881.1.2.3.4" bus2="ET28_2706.1.2.3.4" linecode="97_4" length=0.06024 units=km
New "Line.SBT_29608" phases=4 bus1="BT753801.1.2.3.4" bus2="ET28_5168.1.2.3.4" linecode="74_4" length=0.03122 units=km
New "Line.SBT_29609" phases=4 bus1="BT753811.1.2.3.4" bus2="BT753801.1.2.3.4" linecode="74_4" length=0.04783 units=km
New "Line.SBT_29610" phases=4 bus1="BT753821.1.2.3.4" bus2="BT753811.1.2.3.4" linecode="74_4" length=0.05100 units=km
New "Line.SBT_11593" phases=3 bus1="BT135761.1.2.4" bus2="ET28_1173.1.2.4" linecode="44_3" length=0.05494 units=km
New "Line.SBT_29548" phases=3 bus1="BT135791.1.2.4" bus2="BT752461.1.2.4" linecode="44_3" length=0.06510 units=km
New "Line.SBT_29550" phases=4 bus1="BT752481.1.2.3.4" bus2="ET28_5616.1.2.3.4" linecode="74_4" length=0.03591 units=km
New "Line.SBT_29551" phases=4 bus1="BT752491.1.2.3.4" bus2="BT752481.1.2.3.4" linecode="74_4" length=0.03807 units=km
New "Line.SBT_27350" phases=3 bus1="BT664021.1.2.4" bus2="ET28_4544.1.2.4" linecode="59_3" length=0.10837 units=km
New "Line.SBT_24928" phases=4 bus1="BT60841.1.2.3.4" bus2="BT363381.1.2.3.4" linecode="58_4" length=0.01852 units=km
New "Line.SBT_26271" phases=2 bus1="BT606871.2.4" bus2="ET28_3397.2.4" linecode="62_2" length=0.07303 units=km
New "Line.SBT_27327" phases=3 bus1="BT628321.1.2.4" bus2="ET28_3047.1.2.4" linecode="44_3" length=0.08013 units=km
New "Line.SBT_18185" phases=3 bus1="BT12991.1.2.4" bus2="BT13021.1.2.4" linecode="44_3" length=0.06576 units=km
New "Line.SBT_18016" phases=2 bus1="BT13041.1.4" bus2="ET28_700.1.4" linecode="67_2" length=0.08529 units=km
New "Line.SBT_18025" phases=2 bus1="BT690151.1.4" bus2="BT392751.1.4" linecode="62_2" length=0.13654 units=km
New "Line.SBT_16441" phases=3 bus1="BT340741.1.2.4" bus2="ET28_4444.1.2.4" linecode="76_3" length=0.07100 units=km
New "Line.SBT_15582" phases=2 bus1="BT664001.1.4" bus2="BT649241.1.4" linecode="60_2" length=0.03202 units=km
New "Line.SBT_15540" phases=2 bus1="BT135701.1.4" bus2="ET28_5100.1.4" linecode="60_2" length=0.10510 units=km
New "Line.SBT_15227" phases=4 bus1="BT497151.1.2.3.4" bus2="BT497161.1.2.3.4" linecode="75_4" length=0.03000 units=km
New "Line.SBT_14734" phases=3 bus1="BT685271.1.2.4" bus2="ET28_2805.1.2.4" linecode="59_3" length=0.08809 units=km
New "Line.SBT_14399" phases=2 bus1="BT563641.1.4" bus2="BT563631.1.4" linecode="62_2" length=0.08900 units=km
New "Line.SBT_12099" phases=4 bus1="BT330861.1.2.3.4" bus2="BT330851.1.2.3.4" linecode="75_4" length=0.01640 units=km
New "Line.SBT_12480" phases=4 bus1="BT28051.1.2.3.4" bus2="BT753881.1.2.3.4" linecode="97_4" length=0.14480 units=km
New "Line.SBT_11473" phases=3 bus1="BT47011.1.2.4" bus2="BT47001.1.2.4" linecode="44_3" length=0.09365 units=km
New "Line.SBT_11595" phases=3 bus1="BT752461.1.2.4" bus2="BT135761.1.2.4" linecode="44_3" length=0.03796 units=km
New "Line.SBT_11782" phases=3 bus1="BT328731.1.2.4" bus2="BT328721.1.2.4" linecode="44_3" length=0.07788 units=km
New "Line.SBT_11167" phases=3 bus1="BT142391.1.2.4" bus2="BT142411.1.2.4" linecode="80_3" length=0.12249 units=km
New "Line.SBT_11250" phases=4 bus1="BT363381.1.2.3.4" bus2="ET28_1990.1.2.3.4" linecode="58_4" length=0.02322 units=km
New "Line.SBT_10984" phases=3 bus1="BT108541.1.2.4" bus2="BT108531.1.2.4" linecode="44_3" length=0.28258 units=km
New "Line.SBT_11027" phases=4 bus1="BT513221.1.2.3.4" bus2="BT513211.1.2.3.4" linecode="16_4" length=0.03176 units=km
New "Line.SBT_11159" phases=3 bus1="BT54631.1.2.4" bus2="ET28_778.1.2.4" linecode="44_3" length=0.05622 units=km
New "Line.SBT_10438" phases=3 bus1="BT21181.1.2.4" bus2="ET28_654.1.2.4" linecode="76_3" length=0.09770 units=km
New "Line.SBT_10450" phases=2 bus1="BT17091.1.4" bus2="BT17081.1.4" linecode="60_2" length=0.04657 units=km
New "Line.SBT_10085" phases=3 bus1="BT34021.1.2.4" bus2="BT34031.1.2.4" linecode="91_3" length=0.08134 units=km
New "Line.SBT_29050" phases=2 bus1="BT54601.1.4" bus2="BT54591.1.4" linecode="60_2" length=0.09218 units=km
New "Line.SBT_28895" phases=4 bus1="BT60831.1.2.3.4" bus2="BT60841.1.2.3.4" linecode="58_4" length=0.02624 units=km
New "Line.SBT_28902" phases=3 bus1="BT628301.1.2.4" bus2="ET28_3047.1.2.4" linecode="44_3" length=0.07782 units=km
New "Line.SBT_28875" phases=3 bus1="BT595521.1.2.4" bus2="ET28_2304.1.2.4" linecode="44_3" length=0.12083 units=km
New "Line.SBT_28722" phases=3 bus1="BT109181.1.2.4" bus2="BT109171.1.2.4" linecode="76_3" length=0.08969 units=km
New "Line.SBT_28673" phases=2 bus1="BT38781.1.4" bus2="BT38771.1.4" linecode="60_2" length=0.13103 units=km
New "Line.SBT_28605" phases=3 bus1="BT142251.1.2.4" bus2="ET28_5258.1.2.4" linecode="59_3" length=0.03384 units=km
New "Line.SBT_28506" phases=3 bus1="BT736161.1.2.4" bus2="BT736151.1.2.4" linecode="44_3" length=0.06700 units=km
New "Line.SBT_28455" phases=2 bus1="BT731651.2.4" bus2="ET28_5100.2.4" linecode="60_2" length=0.08130 units=km
New "Line.SBT_28460" phases=2 bus1="BT732571.1.4" bus2="BT510451.1.4" linecode="70_2" length=0.05732 units=km
New "Line.SBT_28461" phases=2 bus1="BT732621.1.4" bus2="BT60371.1.4" linecode="60_2" length=0.07816 units=km
New "Line.SBT_28414" phases=4 bus1="BT689851.1.2.3.4" bus2="ET28_5513.1.2.3.4" linecode="74_4" length=0.05504 units=km
New "Line.SBT_28097" phases=2 bus1="BT724321.1.4" bus2="ET28_4805.1.4" linecode="62_2" length=0.18999 units=km
New "Line.SBT_27842" phases=3 bus1="BT668121.1.2.4" bus2="ET28_4506.1.2.4" linecode="59_3" length=0.06580 units=km
New "Line.SBT_27798" phases=3 bus1="BT117781.1.2.4" bus2="ET28_4444.1.2.4" linecode="76_3" length=0.05900 units=km
New "Line.SBT_27799" phases=3 bus1="BT340731.1.2.4" bus2="BT340721.1.2.4" linecode="44_3" length=0.09100 units=km
New "Line.SBT_27678" phases=3 bus1="BT201821.1.2.4" bus2="ET28_1932.1.2.4" linecode="76_3" length=0.05501 units=km
New "Line.SBT_27665" phases=2 bus1="BT43791.1.4" bus2="BT43801.1.4" linecode="62_2" length=0.08262 units=km
New "Line.SBT_27559" phases=3 bus1="BT719531.1.2.4" bus2="BT719521.1.2.4" linecode="44_3" length=0.04817 units=km
New "Line.SBT_27348" phases=3 bus1="BT47952.1.2.4" bus2="ET28_4271.1.2.4" linecode="59_3" length=0.08188 units=km
New "Line.SBT_27349" phases=2 bus1="BT53541.1.4" bus2="BT53531.1.4" linecode="62_2" length=0.18962 units=km
New "Line.SBT_27351" phases=3 bus1="BT664101.1.2.4" bus2="BT27981.1.2.4" linecode="76_3" length=0.07861 units=km
New "Line.SBT_27316" phases=3 bus1="BT593901.1.2.4" bus2="BT417991.1.2.4" linecode="44_3" length=0.04754 units=km
New "Line.SBT_27317" phases=2 bus1="BT649241.1.4" bus2="BT649231.1.4" linecode="60_2" length=0.03680 units=km
New "Line.SBT_27318" phases=2 bus1="BT21281.1.4" bus2="ET28_4270.1.4" linecode="60_2" length=0.12433 units=km
New "Line.SBT_27123" phases=2 bus1="BT497101.1.4" bus2="BT497091.1.4" linecode="69_2" length=0.08900 units=km
New "Line.SBT_27124" phases=4 bus1="BT60851.1.2.3.4" bus2="BT497151.1.2.3.4" linecode="75_4" length=0.04700 units=km
New "Line.SBT_27125" phases=4 bus1="BT506831.1.2.3.4" bus2="BT506561.1.2.3.4" linecode="75_4" length=0.04200 units=km
New "Line.SBT_27122" phases=3 bus1="BT497071.1.2.4" bus2="ET28_3311.1.2.4" linecode="71_3" length=0.04262 units=km
New "Line.SBT_26851" phases=2 bus1="BT53711.1.4" bus2="ET28_4042.1.4" linecode="62_2" length=0.04657 units=km
New "Line.SBT_26644" phases=3 bus1="BT563601.1.2.4" bus2="BT43041.1.2.4" linecode="59_3" length=0.09144 units=km
New "Line.SBT_26469" phases=2 bus1="BT622611.1.4" bus2="BT141511.1.4" linecode="62_2" length=0.08335 units=km
New "Line.SBT_26360" phases=2 bus1="BT604481.1.4" bus2="BT60521.1.4" linecode="62_2" length=0.06800 units=km
New "Line.SBT_26356" phases=3 bus1="BT628311.1.2.4" bus2="BT628301.1.2.4" linecode="44_3" length=0.05012 units=km
New "Line.SBT_26011" phases=2 bus1="BT583051.1.4" bus2="BT364541.1.4" linecode="62_2" length=0.06008 units=km
New "Line.SBT_25910" phases=3 bus1="BT59341.1.2.4" bus2="ET28_636.1.2.4" linecode="59_3" length=0.07382 units=km
New "Line.SBT_25726" phases=2 bus1="BT21.1.4" bus2="BT11.1.4" linecode="60_2" length=0.10762 units=km
New "Line.SBT_25645" phases=3 bus1="BT60511.1.2.4" bus2="ET28_634.1.2.4" linecode="44_3" length=0.07292 units=km
New "Line.SBT_25646" phases=3 bus1="BT60531.1.2.4" bus2="BT737841.1.2.4" linecode="44_3" length=0.07642 units=km
New "Line.SBT_25632" phases=2 bus1="BT42791.1.4" bus2="BT325711.1.4" linecode="60_2" length=0.08101 units=km
New "Line.SBT_25640" phases=3 bus1="BT11.1.2.4" bus2="ET28_633.1.2.4" linecode="44_3" length=0.09005 units=km
New "Line.SBT_25599" phases=3 bus1="BT15271.1.2.4" bus2="BT15261.1.2.4" linecode="44_3" length=0.09913 units=km
New "Line.SBT_25607" phases=3 bus1="BT326631.1.2.4" bus2="ET28_2790.1.2.4" linecode="59_3" length=0.05632 units=km
New "Line.SBT_25608" phases=2 bus1="BT47211.1.4" bus2="ET28_2791.1.4" linecode="60_2" length=0.09244 units=km
New "Line.SBT_25609" phases=2 bus1="BT53731.1.4" bus2="BT47211.1.4" linecode="60_2" length=0.09035 units=km
New "Line.SBT_25610" phases=4 bus1="BT330851.1.2.3.4" bus2="BT493021.1.2.3.4" linecode="75_4" length=0.03612 units=km
New "Line.SBT_25614" phases=2 bus1="BT3051.2.4" bus2="BT3041.2.4" linecode="60_2" length=0.07616 units=km
New "Line.SBT_25531" phases=3 bus1="BT27991.1.2.4" bus2="BT664101.1.2.4" linecode="76_3" length=0.07616 units=km
New "Line.SBT_25535" phases=2 bus1="BT378171.2.4" bus2="ET28_2805.2.4" linecode="60_2" length=0.21506 units=km
New "Line.SBT_25508" phases=2 bus1="BT148121.2.4" bus2="BT109941.2.4" linecode="60_2" length=0.06812 units=km
New "Line.SBT_25514" phases=3 bus1="BT14421.1.2.4" bus2="ET28_635.1.2.4" linecode="91_3" length=0.09684 units=km
New "Line.SBT_25515" phases=3 bus1="BT14381.1.2.4" bus2="ET28_635.1.2.4" linecode="44_3" length=0.10310 units=km
New "Line.SBT_25425" phases=3 bus1="BT14391.1.2.4" bus2="BT14381.1.2.4" linecode="44_3" length=0.11656 units=km
New "Line.SBT_25426" phases=3 bus1="BT14451.1.2.4" bus2="BT14441.1.2.4" linecode="91_3" length=0.11511 units=km
New "Line.SBT_25434" phases=2 bus1="BT13111.2.4" bus2="BT13091.2.4" linecode="60_2" length=0.12683 units=km
New "Line.SBT_25435" phases=3 bus1="BT42941.1.2.4" bus2="ET28_2316.1.2.4" linecode="44_3" length=0.07908 units=km
New "Line.SBT_25445" phases=3 bus1="BT14411.1.2.4" bus2="BT14391.1.2.4" linecode="44_3" length=0.06868 units=km
New "Line.SBT_25399" phases=2 bus1="BT142291.2.4" bus2="BT142281.2.4" linecode="60_2" length=0.08698 units=km
New "Line.SBT_25400" phases=4 bus1="BT330871.1.2.3.4" bus2="BT330861.1.2.3.4" linecode="75_4" length=0.02140 units=km
New "Line.SBT_25401" phases=3 bus1="BT110091.1.2.4" bus2="ET28_2303.1.2.4" linecode="44_3" length=0.12914 units=km
New "Line.SBT_25409" phases=3 bus1="BT13101.1.2.4" bus2="BT13091.1.2.4" linecode="44_3" length=0.06002 units=km
New "Line.SBT_25414" phases=2 bus1="BT110021.1.4" bus2="BT110011.1.4" linecode="60_2" length=0.31013 units=km
New "Line.SBT_25417" phases=2 bus1="BT27461.1.4" bus2="BT1821.1.4" linecode="60_2" length=0.10481 units=km
New "Line.SBT_25421" phases=2 bus1="BT110081.1.4" bus2="ET28_2303.1.4" linecode="60_2" length=0.03324 units=km
New "Line.SBT_25387" phases=2 bus1="BT378201.1.4" bus2="BT141511.1.4" linecode="60_2" length=0.03384 units=km
New "Line.SBT_25391" phases=2 bus1="BT142341.2.4" bus2="BT142331.2.4" linecode="60_2" length=0.10204 units=km
New "Line.SBT_25392" phases=2 bus1="BT425931.2.4" bus2="BT142351.2.4" linecode="60_2" length=0.06719 units=km
New "Line.SBT_25393" phases=2 bus1="BT142261.2.4" bus2="BT142251.2.4" linecode="60_2" length=0.02110 units=km
New "Line.SBT_25394" phases=3 bus1="BT134821.1.2.4" bus2="ET28_2247.1.2.4" linecode="44_3" length=0.13149 units=km
New "Line.SBT_25325" phases=2 bus1="BT303891.2.4" bus2="BT31591.2.4" linecode="62_2" length=0.16042 units=km
New "Line.SBT_25332" phases=3 bus1="BT14351.1.2.4" bus2="BT14361.1.2.4" linecode="44_3" length=0.08228 units=km
New "Line.SBT_25256" phases=3 bus1="BT109141.1.2.4" bus2="BT109151.1.2.4" linecode="76_3" length=0.08215 units=km
New "Line.SBT_25258" phases=2 bus1="BT110182.1.4" bus2="BT110191.1.4" linecode="60_2" length=0.08559 units=km
New "Line.SBT_25260" phases=2 bus1="BT21282.1.4" bus2="BT21301.1.4" linecode="60_2" length=0.11714 units=km
New "Line.SBT_25261" phases=3 bus1="BT53681.1.2.4" bus2="ET28_628.1.2.4" linecode="80_3" length=0.08139 units=km
New "Line.SBT_25239" phases=3 bus1="BT16931.1.2.4" bus2="ET28_1946.1.2.4" linecode="44_3" length=0.09508 units=km
New "Line.SBT_25240" phases=2 bus1="BT13051.1.4" bus2="BT13041.1.4" linecode="67_2" length=0.10623 units=km
New "Line.SBT_25245" phases=2 bus1="BT135581.1.4" bus2="BT134841.1.4" linecode="60_2" length=0.13553 units=km
New "Line.SBT_25217" phases=3 bus1="BT56481.1.2.4" bus2="ET28_1829.1.2.4" linecode="44_3" length=0.18613 units=km
New "Line.SBT_25218" phases=3 bus1="BT328721.1.2.4" bus2="BT328711.1.2.4" linecode="44_3" length=0.07134 units=km
New "Line.SBT_25219" phases=3 bus1="BT109151.1.2.4" bus2="ET28_1932.1.2.4" linecode="76_3" length=0.06420 units=km
New "Line.SBT_25128" phases=3 bus1="BT360861.1.2.4" bus2="ET28_700.1.2.4" linecode="80_3" length=0.02600 units=km
New "Line.SBT_25138" phases=2 bus1="BT359371.1.4" bus2="BT38651.1.4" linecode="60_2" length=0.04768 units=km
New "Line.SBT_25139" phases=3 bus1="BT12381.1.2.4" bus2="ET28_701.1.2.4" linecode="44_3" length=0.08065 units=km
New "Line.SBT_25140" phases=3 bus1="BT12361.1.2.4" bus2="ET28_701.1.2.4" linecode="44_3" length=0.11449 units=km
New "Line.SBT_25141" phases=3 bus1="BT38831.1.2.4" bus2="BT12361.1.2.4" linecode="44_3" length=0.07906 units=km
New "Line.SBT_25101" phases=3 bus1="BT43741.1.2.4" bus2="BT43041.1.2.4" linecode="59_3" length=0.09309 units=km
New "Line.SBT_25102" phases=2 bus1="BT326271.1.4" bus2="BT3091.1.4" linecode="60_2" length=0.07962 units=km
New "Line.SBT_25106" phases=3 bus1="BT134841.1.2.4" bus2="BT134832.1.2.4" linecode="76_3" length=0.08896 units=km
New "Line.SBT_25107" phases=3 bus1="BT135591.1.2.4" bus2="BT135601.1.2.4" linecode="76_3" length=0.08766 units=km
New "Line.SBT_25113" phases=2 bus1="BT72531.1.4" bus2="BT72521.1.4" linecode="60_2" length=0.10576 units=km
New "Line.SBT_25117" phases=2 bus1="BT55601.2.4" bus2="ET28_1044.2.4" linecode="60_2" length=0.11985 units=km
New "Line.SBT_25118" phases=2 bus1="BT320181.2.4" bus2="ET28_1044.2.4" linecode="62_2" length=0.28007 units=km
New "Line.SBT_25077" phases=2 bus1="BT54671.1.4" bus2="BT54661.1.4" linecode="60_2" length=0.12027 units=km
New "Line.SBT_25080" phases=2 bus1="BT27921.1.4" bus2="BT27291.1.4" linecode="60_2" length=0.05604 units=km
New "Line.SBT_25081" phases=4 bus1="BT15181.1.2.3.4" bus2="ET28_626.1.2.3.4" linecode="92_4" length=0.03744 units=km
New "Line.SBT_25082" phases=4 bus1="BT15141.1.2.3.4" bus2="BT15181.1.2.3.4" linecode="92_4" length=0.04105 units=km
New "Line.SBT_25083" phases=4 bus1="BT15151.1.2.3.4" bus2="BT15141.1.2.3.4" linecode="92_4" length=0.07060 units=km
New "Line.SBT_25084" phases=2 bus1="BT373991.2.4" bus2="BT373981.2.4" linecode="60_2" length=0.08593 units=km
New "Line.SBT_25091" phases=2 bus1="BT2961.1.4" bus2="BT2951.1.4" linecode="60_2" length=0.07649 units=km
New "Line.SBT_25096" phases=3 bus1="BT881.1.2.4" bus2="ET28_1751.1.2.4" linecode="44_3" length=0.11900 units=km
New "Line.SBT_25097" phases=3 bus1="BT60361.1.2.4" bus2="ET28_1751.1.2.4" linecode="44_3" length=0.09588 units=km
New "Line.SBT_25047" phases=3 bus1="BT47001.1.2.4" bus2="ET28_640.1.2.4" linecode="44_3" length=0.07269 units=km
New "Line.SBT_25061" phases=4 bus1="BT451791.1.2.3.4" bus2="BT325631.1.2.3.4" linecode="16_4" length=0.03996 units=km
New "Line.SBT_25064" phases=3 bus1="BT2941.1.2.4" bus2="ET28_630.1.2.4" linecode="44_3" length=0.06341 units=km
New "Line.SBT_25065" phases=3 bus1="BT2951.1.2.4" bus2="BT2941.1.2.4" linecode="44_3" length=0.07864 units=km
New "Line.SBT_25024" phases=3 bus1="BT135702.1.2.4" bus2="BT135691.1.2.4" linecode="76_3" length=0.08460 units=km
New "Line.SBT_25037" phases=2 bus1="BT60921.1.4" bus2="BT60911.1.4" linecode="60_2" length=0.13909 units=km
New "Line.SBT_25038" phases=4 bus1="BT60891.1.2.3.4" bus2="ET28_5257.1.2.3.4" linecode="97_4" length=0.06120 units=km
New "Line.SBT_25001" phases=2 bus1="BT349691.1.4" bus2="BT135711.1.4" linecode="60_2" length=0.05680 units=km
New "Line.SBT_25008" phases=4 bus1="BT15201.1.2.3.4" bus2="ET28_626.1.2.3.4" linecode="45_4" length=0.07628 units=km
New "Line.SBT_25019" phases=4 bus1="BT134761.1.2.3.4" bus2="ET28_694.1.2.3.4" linecode="75_4" length=0.05376 units=km
New "Line.SBT_24995" phases=4 bus1="BT134741.1.2.3.4" bus2="BT134751.1.2.3.4" linecode="75_4" length=0.06517 units=km
New "Line.SBT_24953" phases=2 bus1="BT16961.1.4" bus2="BT16951.1.4" linecode="60_2" length=0.10160 units=km
New "Line.SBT_24971" phases=2 bus1="BT2972.1.4" bus2="ET28_4628.1.4" linecode="60_2" length=0.11690 units=km
New "Line.SBT_24927" phases=2 bus1="BT54501.1.4" bus2="ET2_1955.1.4" linecode="60_2" length=0.16508 units=km
New "Line.SBT_24940" phases=4 bus1="BT15171.1.2.3.4" bus2="BT15161.1.2.3.4" linecode="92_4" length=0.09345 units=km
New "Line.SBT_24877" phases=2 bus1="BT11141.1.4" bus2="ET2_1997.1.4" linecode="60_2" length=0.10024 units=km
New "Line.SBT_24878" phases=3 bus1="BT108521.1.2.4" bus2="ET28_1998.1.2.4" linecode="80_3" length=0.07779 units=km
New "Line.SBT_24879" phases=3 bus1="BT108531.1.2.4" bus2="BT108521.1.2.4" linecode="44_3" length=0.04144 units=km
New "Line.SBT_24888" phases=3 bus1="BT340711.1.2.4" bus2="ET28_2000.1.2.4" linecode="44_3" length=0.22634 units=km
New "Line.SBT_24869" phases=3 bus1="BT329921.1.2.4" bus2="BT47911.1.2.4" linecode="76_3" length=0.11676 units=km
New "Line.SBT_24834" phases=2 bus1="BT291091.1.4" bus2="ET28_2832.1.4" linecode="62_2" length=0.14111 units=km
New "Line.SBT_24836" phases=2 bus1="BT38801.1.4" bus2="BT38791.1.4" linecode="60_2" length=0.07692 units=km
New "Line.SBT_24837" phases=3 bus1="BT47931.1.2.4" bus2="ET28_627.1.2.4" linecode="44_3" length=0.10872 units=km
New "Line.SBT_24838" phases=2 bus1="BT47941.1.4" bus2="BT47931.1.4" linecode="60_2" length=0.08002 units=km
New "Line.SBT_24839" phases=2 bus1="BT59451.1.4" bus2="BT59431.1.4" linecode="60_2" length=0.12474 units=km
New "Line.SBT_24840" phases=3 bus1="BT47911.1.2.4" bus2="ET28_1993.1.2.4" linecode="76_3" length=0.04494 units=km
New "Line.SBT_24847" phases=4 bus1="BT134751.1.2.3.4" bus2="BT134761.1.2.3.4" linecode="75_4" length=0.05885 units=km
New "Line.SBT_24812" phases=2 bus1="BT38811.1.4" bus2="BT38791.1.4" linecode="60_2" length=0.08102 units=km
New "Line.SBT_24783" phases=2 bus1="BT109081.1.4" bus2="BT108541.1.4" linecode="60_2" length=0.08635 units=km
New "Line.SBT_24784" phases=2 bus1="BT142371.2.4" bus2="BT142381.2.4" linecode="67_2" length=0.11129 units=km
New "Line.SBT_24623" phases=3 bus1="BT21141.1.2.4" bus2="BT21131.1.2.4" linecode="76_3" length=0.07916 units=km
New "Line.SBT_24476" phases=2 bus1="BT21161.2.4" bus2="BT21141.2.4" linecode="62_2" length=0.11650 units=km
New "Line.SBT_24477" phases=2 bus1="BT17081.1.4" bus2="ET28_655.1.4" linecode="60_2" length=0.04159 units=km
New "Line.SBT_24478" phases=2 bus1="BT325841.1.4" bus2="BT75921.1.4" linecode="60_2" length=0.07112 units=km
New "Line.SBT_24468" phases=3 bus1="BT12051.1.2.4" bus2="BT12041.1.2.4" linecode="44_3" length=0.06174 units=km
New "Line.SBT_24469" phases=3 bus1="BT21121.1.2.4" bus2="BT21111.1.2.4" linecode="76_3" length=0.09114 units=km
New "Line.SBT_24350" phases=3 bus1="BT34031.1.2.4" bus2="ET28_693.1.2.4" linecode="91_3" length=0.06931 units=km
New "Line.SBT_24351" phases=3 bus1="BT34051.1.2.4" bus2="ET28_693.1.2.4" linecode="91_3" length=0.05920 units=km
New "Line.SBT_23603" phases=3 bus1="BT18311.1.2.4" bus2="BT18301.1.2.4" linecode="59_3" length=0.10296 units=km
New "Line.SBT_22941" phases=2 bus1="BT574701.1.4" bus2="BT31621.1.4" linecode="62_2" length=0.05590 units=km
New "Line.SBT_22228" phases=3 bus1="BT25101.1.2.4" bus2="BT25121.1.2.4" linecode="59_3" length=0.07023 units=km
New "Line.SBT_21597" phases=2 bus1="BT649301.2.4" bus2="BT378171.2.4" linecode="60_2" length=0.06429 units=km
New "Line.SBT_20436" phases=2 bus1="BT55451.2.4" bus2="BT55461.2.4" linecode="60_2" length=0.09916 units=km
New "Line.SBT_20377" phases=3 bus1="BT55461.1.2.4" bus2="ET2_1992.1.2.4" linecode="44_3" length=0.24083 units=km
New "Line.SBT_20089" phases=3 bus1="BT55501.1.2.4" bus2="BT55491.1.2.4" linecode="44_3" length=0.03178 units=km
New "Line.SBT_19773" phases=4 bus1="BT476731.1.2.3.4" bus2="BT513231.1.2.3.4" linecode="16_4" length=0.02693 units=km
New "Line.SBT_19667" phases=3 bus1="BT301791.1.2.4" bus2="ET28_3314.1.2.4" linecode="59_3" length=0.04211 units=km
New "Line.SBT_35469" phases=2 bus1="BT132671.1.4" bus2="BT132681.1.4" linecode="60_2" length=0.10640 units=km
New "Line.SBT_35470" phases=2 bus1="BT132681.1.4" bus2="BT132691.1.4" linecode="60_2" length=0.07762 units=km
New "Line.SBT_35471" phases=2 bus1="BT132691.1.4" bus2="BT132701.1.4" linecode="60_2" length=0.08246 units=km
New "Line.SBT_35472" phases=2 bus1="BT132701.1.4" bus2="ET28_695.1.4" linecode="60_2" length=0.07628 units=km
New "Line.SBT_35474" phases=2 bus1="BT141451.2.4" bus2="ET28_695.2.4" linecode="60_2" length=0.10373 units=km
New "Line.SBT_18434" phases=3 bus1="BT53531.1.2.4" bus2="ET28_4271.1.2.4" linecode="59_3" length=0.07829 units=km
New "Line.SBT_18311" phases=3 bus1="BT17111.1.2.4" bus2="BT17101.1.2.4" linecode="44_3" length=0.07852 units=km
New "Line.SBT_18265" phases=3 bus1="BT110001.1.2.4" bus2="ET28_2000.1.2.4" linecode="44_3" length=0.13370 units=km
New "Line.SBT_18267" phases=3 bus1="BT349651.1.2.4" bus2="BT134751.1.2.4" linecode="76_3" length=0.04570 units=km
New "Line.SBT_18179" phases=2 bus1="BT54491.2.4" bus2="ET2_1955.2.4" linecode="60_2" length=0.07642 units=km
New "Line.SBT_18182" phases=2 bus1="BT60941.1.4" bus2="BT28031.1.4" linecode="60_2" length=0.09862 units=km
New "Line.SBT_18186" phases=3 bus1="BT364541.1.2.4" bus2="ET28_5431.1.2.4" linecode="59_3" length=0.04708 units=km
New "Line.SBT_18189" phases=2 bus1="BT326281.1.4" bus2="BT326271.1.4" linecode="60_2" length=0.08287 units=km
New "Line.SBT_18077" phases=3 bus1="BT135781.1.2.4" bus2="BT135761.1.2.4" linecode="44_3" length=0.05580 units=km
New "Line.SBT_18078" phases=2 bus1="BT56461.1.4" bus2="ET28_1829.1.4" linecode="60_2" length=0.03705 units=km
New "Line.SBT_17707" phases=3 bus1="BT675971.1.2.4" bus2="BT371941.1.2.4" linecode="59_3" length=0.07021 units=km
New "Line.SBT_17697" phases=3 bus1="BT737841.1.2.4" bus2="BT60511.1.2.4" linecode="44_3" length=0.06061 units=km
New "Line.SBT_17670" phases=3 bus1="BT371931.1.2.4" bus2="ET28_5205.1.2.4" linecode="59_3" length=0.06316 units=km
New "Line.SBT_17671" phases=3 bus1="BT371941.1.2.4" bus2="ET28_5205.1.2.4" linecode="59_3" length=0.07280 units=km
New "Line.SBT_17684" phases=3 bus1="BT736151.1.2.4" bus2="BT703921.1.2.4" linecode="44_3" length=0.06700 units=km
New "Line.SBT_17600" phases=2 bus1="BT510451.1.4" bus2="ET28_3696.1.4" linecode="70_2" length=0.04301 units=km
New "Line.SBT_17601" phases=2 bus1="BT732581.1.4" bus2="BT732571.1.4" linecode="70_2" length=0.03541 units=km
New "Line.SBT_17556" phases=4 bus1="BT685311.1.2.3.4" bus2="ET28_5324.1.2.3.4" linecode="97_4" length=0.03124 units=km
New "Line.SBT_17520" phases=4 bus1="BT135631.1.2.3.4" bus2="BT689851.1.2.3.4" linecode="74_4" length=0.05617 units=km
New "Line.SBT_17407" phases=2 bus1="BT110011.1.4" bus2="ET28_5431.1.4" linecode="62_2" length=0.13170 units=km
New "Line.SBT_17358" phases=2 bus1="BT690481.1.4" bus2="ET28_5017.1.4" linecode="60_2" length=0.03871 units=km
New "Line.SBT_17314" phases=2 bus1="BT392751.1.4" bus2="ET28_5380.1.4" linecode="62_2" length=0.04042 units=km
New "Line.SBT_16644" phases=3 bus1="BT731101.1.2.4" bus2="ET28_699.1.2.4" linecode="44_3" length=0.04272 units=km
New "Line.SBT_16524" phases=3 bus1="BT43761.1.2.4" bus2="ET28_4506.1.2.4" linecode="59_3" length=0.06059 units=km
New "Line.SBT_16525" phases=3 bus1="BT668091.1.2.4" bus2="BT43021.1.2.4" linecode="59_3" length=0.04800 units=km
New "Line.SBT_16442" phases=3 bus1="BT340732.1.2.4" bus2="BT117781.1.2.4" linecode="76_3" length=0.06100 units=km
New "Line.SBT_16443" phases=2 bus1="BT340751.1.4" bus2="BT340732.1.4" linecode="60_2" length=0.13159 units=km
New "Line.SBT_16201" phases=2 bus1="BT43801.1.4" bus2="ET28_4874.1.4" linecode="62_2" length=0.09578 units=km
New "Line.SBT_16001" phases=3 bus1="BT719521.1.2.4" bus2="BT477411.1.2.4" linecode="44_3" length=0.08280 units=km
New "Line.SBT_16002" phases=3 bus1="BT719601.1.2.4" bus2="ET28_4801.1.2.4" linecode="59_3" length=0.05852 units=km
New "Line.SBT_16003" phases=3 bus1="BT16981.1.2.4" bus2="BT719601.1.2.4" linecode="59_3" length=0.08981 units=km
New "Line.SBT_16004" phases=3 bus1="BT16991.1.2.4" bus2="ET28_4801.1.2.4" linecode="44_3" length=0.02154 units=km
New "Line.SBT_15973" phases=3 bus1="BT703921.1.2.4" bus2="ET28_4965.1.2.4" linecode="44_3" length=0.04500 units=km
New "Line.SBT_15632" phases=3 bus1="BT53511.1.2.4" bus2="BT47952.1.2.4" linecode="44_3" length=0.09986 units=km
New "Line.SBT_15633" phases=2 bus1="BT47791.1.4" bus2="ET28_627.1.4" linecode="60_2" length=0.04244 units=km
New "Line.SBT_15634" phases=3 bus1="BT664041.1.2.4" bus2="BT347071.1.2.4" linecode="44_3" length=0.06648 units=km
New "Line.SBT_15635" phases=3 bus1="BT664071.1.2.4" bus2="ET32_702.1.2.4" linecode="76_3" length=0.07400 units=km
New "Line.SBT_15601" phases=3 bus1="BT627311.1.2.4" bus2="BT25111.1.2.4" linecode="59_3" length=0.08638 units=km
New "Line.SBT_15581" phases=2 bus1="BT649231.1.4" bus2="BT562461.1.4" linecode="60_2" length=0.03087 units=km
New "Line.SBT_15583" phases=2 bus1="BT664011.1.4" bus2="BT664001.1.4" linecode="60_2" length=0.02433 units=km
New "Line.SBT_15536" phases=4 bus1="BT513191.1.2.3.4" bus2="BT363381.1.2.3.4" linecode="16_4" length=0.01772 units=km
New "Line.SBT_15537" phases=4 bus1="BT513211.1.2.3.4" bus2="BT363381.1.2.3.4" linecode="16_4" length=0.01648 units=km
New "Line.SBT_15538" phases=3 bus1="BT476321.1.2.4" bus2="BT349681.1.2.4" linecode="76_3" length=0.01500 units=km
New "Line.SBT_15539" phases=2 bus1="BT135681.1.4" bus2="BT135691.1.4" linecode="60_2" length=0.02943 units=km
New "Line.SBT_15541" phases=3 bus1="BT135751.1.2.4" bus2="ET28_1173.1.2.4" linecode="80_3" length=0.02900 units=km
New "Line.SBT_15542" phases=2 bus1="BT199671.1.4" bus2="ET28_2000.1.4" linecode="60_2" length=0.03324 units=km
New "Line.SBT_15463" phases=2 bus1="BT298451.1.4" bus2="ET28_4270.1.4" linecode="60_2" length=0.04305 units=km
New "Line.SBT_15224" phases=2 bus1="BT497091.1.4" bus2="BT497071.1.4" linecode="69_2" length=0.05700 units=km
New "Line.SBT_15226" phases=4 bus1="BT497161.1.2.3.4" bus2="ET28_4437.1.2.3.4" linecode="75_4" length=0.03000 units=km
New "Line.SBT_15228" phases=4 bus1="BT506561.1.2.3.4" bus2="ET28_4437.1.2.3.4" linecode="75_4" length=0.02700 units=km
New "Line.SBT_14759" phases=3 bus1="BT113941.1.2.4" bus2="ET28_4048.1.2.4" linecode="59_3" length=0.04588 units=km