New "Load.BT_1284_M1" bus1="UC14865.2.3.4" phases=2 conn=delta model=2 kv=0.38 kw = 322.83230847743806 pf=0.92 status=variable vmaxpu=1.5 vminpu=0.93 daily="RES_2_DO" 
New "Load.BT_1284_M2" bus1="UC14865.2.3.4" phases=2 conn=delta model=3 kv=0.38 kw = 322.83230847743806 pf=0.92 status=variable vmaxpu=1.5 vminpu=0.93 daily="RES_2_DO"
 
New "Load.BT_7585_M1" bus1="UC15172.1.4" phases=1 conn=delta model=2 kv=0.22 kw = 212.23235094350093 pf=0.92 status=variable vmaxpu=1.5 vminpu=0.93 daily="RES_2_DO" 
New "Load.BT_7585_M2" bus1="UC15172.1.4" phases=1 conn=delta model=3 kv=0.22 kw = 212.23235094350093 pf=0.92 status=variable vmaxpu=1.5 vminpu=0.93 daily="RES_2_DO"
 
New "Load.BT_1321_M1" bus1="UC15176.1.2.3.4" phases=3 conn=delta model=2 kv=0.38 kw = 0.0 pf=0.92 status=variable vmaxpu=1.5 vminpu=0.93 daily="COM_13_DO" 
New "Load.BT_1321_M2" bus1="UC15176.1.2.3.4" phases=3 conn=delta model=3 kv=0.38 kw = 0.0 pf=0.92 status=variable vmaxpu=1.5 vminpu=0.93 daily="COM_13_DO"
 
New "Load.BT_1284_M1" bus1="UC14865.3.1.4" phases=2 conn=delta model=2 kv=0.38 kw = 484.248462716157 pf=0.92 status=variable vmaxpu=1.5 vminpu=0.93 daily="RES_2_DO" 
New "Load.BT_1284_M2" bus1="UC14865.3.1.4" phases=2 conn=delta model=3 kv=0.38 kw = 484.248462716157 pf=0.92 status=variable vmaxpu=1.5 vminpu=0.93 daily="RES_2_DO"
 
New "Load.BT_7553_M1" bus1="UC20061.1.2.3.4" phases=3 conn=delta model=2 kv=0.38 kw = 45.555617336242925 pf=0.92 status=variable vmaxpu=1.5 vminpu=0.93 daily="RES_7_DO" 
New "Load.BT_7553_M2" bus1="UC20061.1.2.3.4" phases=3 conn=delta model=3 kv=0.38 kw = 45.555617336242925 pf=0.92 status=variable vmaxpu=1.5 vminpu=0.93 daily="RES_7_DO"
 
New "Load.BT_2523_M1" bus1="UC20136.3.4" phases=1 conn=delta model=2 kv=0.22 kw = 407.92458574456634 pf=0.92 status=variable vmaxpu=1.5 vminpu=0.93 daily="RES_3_DO" 
New "Load.BT_2523_M2" bus1="UC20136.3.4" phases=1 conn=delta model=3 kv=0.22 kw = 407.92458574456634 pf=0.92 status=variable vmaxpu=1.5 vminpu=0.93 daily="RES_3_DO"
 
New "Load.BT_1656_M1" bus1="UC1545.1.4" phases=1 conn=delta model=2 kv=0.22 kw = 833.97915307778 pf=0.92 status=variable vmaxpu=1.5 vminpu=0.93 daily="RES_3_DO" 
New "Load.BT_1656_M2" bus1="UC1545.1.4" phases=1 conn=delta model=3 kv=0.22 kw = 833.97915307778 pf=0.92 status=variable vmaxpu=1.5 vminpu=0.93 daily="RES_3_DO"
 
New "Load.BT_446_M1" bus1="UC16148.1.2.3.4" phases=3 conn=delta model=2 kv=0.38 kw = 51529.94017033305 pf=0.92 status=variable vmaxpu=1.5 vminpu=0.93 daily="RES_3_DO" 
New "Load.BT_446_M2" bus1="UC16148.1.2.3.4" phases=3 conn=delta model=3 kv=0.38 kw = 51529.94017033305 pf=0.92 status=variable vmaxpu=1.5 vminpu=0.93 daily="RES_3_DO"
 
New "Load.BT_7293_M1" bus1="UC20138.2.3.4" phases=2 conn=delta model=2 kv=0.38 kw = 57.5439376878858 pf=0.92 status=variable vmaxpu=1.5 vminpu=0.93 daily="RES_7_DO" 
New "Load.BT_7293_M2" bus1="UC20138.2.3.4" phases=2 conn=delta model=3 kv=0.38 kw = 57.5439376878858 pf=0.92 status=variable vmaxpu=1.5 vminpu=0.93 daily="RES_7_DO"
 
New "Load.BT_1288_M1" bus1="UC8495.1.4" phases=1 conn=delta model=2 kv=0.22 kw = 35.96496105492862 pf=0.92 status=variable vmaxpu=1.5 vminpu=0.93 daily="RES_7_DO" 
New "Load.BT_1288_M2" bus1="UC8495.1.4" phases=1 conn=delta model=3 kv=0.22 kw = 35.96496105492862 pf=0.92 status=variable vmaxpu=1.5 vminpu=0.93 daily="RES_7_DO"
 
New "Load.BT_2743_M1" bus1="UC6417.2.4" phases=1 conn=delta model=2 kv=0.22 kw = 616.4193740140113 pf=0.92 status=variable vmaxpu=1.5 vminpu=0.93 daily="RES_3_DO" 
New "Load.BT_2743_M2" bus1="UC6417.2.4" phases=1 conn=delta model=3 kv=0.22 kw = 616.4193740140113 pf=0.92 status=variable vmaxpu=1.5 vminpu=0.93 daily="RES_3_DO"
 
New "Load.BT_7794_M1" bus1="UC16133.1.4" phases=1 conn=delta model=2 kv=0.22 kw = 26.37430477361433 pf=0.92 status=variable vmaxpu=1.5 vminpu=0.93 daily="RES_7_DO" 
New "Load.BT_7794_M2" bus1="UC16133.1.4" phases=1 conn=delta model=3 kv=0.22 kw = 26.37430477361433 pf=0.92 status=variable vmaxpu=1.5 vminpu=0.93 daily="RES_7_DO"
 
New "Load.BT_660_M1" bus1="UC15632.3.4" phases=1 conn=delta model=2 kv=0.22 kw = 466.8470259076704 pf=0.92 status=variable vmaxpu=1.5 vminpu=0.93 daily="RES_3_DO" 
New "Load.BT_660_M2" bus1="UC15632.3.4" phases=1 conn=delta model=3 kv=0.22 kw = 466.8470259076704 pf=0.92 status=variable vmaxpu=1.5 vminpu=0.93 daily="RES_3_DO"
 
New "Load.BT_8598_M1" bus1="UC16137.1.2.3.4" phases=3 conn=delta model=2 kv=0.38 kw = 1763.1407094959588 pf=0.92 status=variable vmaxpu=1.5 vminpu=0.93 daily="RES_3_DO" 
New "Load.BT_8598_M2" bus1="UC16137.1.2.3.4" phases=3 conn=delta model=3 kv=0.38 kw = 1763.1407094959588 pf=0.92 status=variable vmaxpu=1.5 vminpu=0.93 daily="RES_3_DO"
 
New "Load.BT_8649_M1" bus1="UC16131.1.2.3.4" phases=3 conn=delta model=2 kv=0.38 kw = 262.88473303538717 pf=0.92 status=variable vmaxpu=1.5 vminpu=0.93 daily="RES_3_DO" 
New "Load.BT_8649_M2" bus1="UC16131.1.2.3.4" phases=3 conn=delta model=3 kv=0.38 kw = 262.88473303538717 pf=0.92 status=variable vmaxpu=1.5 vminpu=0.93 daily="RES_3_DO"
 
New "Load.BT_8569_M1" bus1="UC20135.1.2.4" phases=2 conn=delta model=2 kv=0.38 kw = 367.1321271701097 pf=0.92 status=variable vmaxpu=1.5 vminpu=0.93 daily="RES_3_DO" 
New "Load.BT_8569_M2" bus1="UC20135.1.2.4" phases=2 conn=delta model=3 kv=0.38 kw = 367.1321271701097 pf=0.92 status=variable vmaxpu=1.5 vminpu=0.93 daily="RES_3_DO"
 
New "Load.BT_856_M1" bus1="UC1889.3.4" phases=1 conn=delta model=2 kv=0.22 kw = 167.83648492300026 pf=0.92 status=variable vmaxpu=1.5 vminpu=0.93 daily="RES_7_DO" 
New "Load.BT_856_M2" bus1="UC1889.3.4" phases=1 conn=delta model=3 kv=0.22 kw = 167.83648492300026 pf=0.92 status=variable vmaxpu=1.5 vminpu=0.93 daily="RES_7_DO"
 
New "Load.BT_2601_M1" bus1="UC15849.2.4" phases=1 conn=delta model=2 kv=0.22 kw = 318.24341973269736 pf=0.92 status=variable vmaxpu=1.5 vminpu=0.93 daily="RES_5_DO" 
New "Load.BT_2601_M2" bus1="UC15849.2.4" phases=1 conn=delta model=3 kv=0.22 kw = 318.24341973269736 pf=0.92 status=variable vmaxpu=1.5 vminpu=0.93 daily="RES_5_DO"
 
New "Load.BT_7733_M1" bus1="UC20092.2.3.4" phases=2 conn=delta model=2 kv=0.38 kw = 330.8721639928149 pf=0.92 status=variable vmaxpu=1.5 vminpu=0.93 daily="RES_3_DO" 
New "Load.BT_7733_M2" bus1="UC20092.2.3.4" phases=2 conn=delta model=3 kv=0.38 kw = 330.8721639928149 pf=0.92 status=variable vmaxpu=1.5 vminpu=0.93 daily="RES_3_DO"
 
New "Load.BT_7733_M1" bus1="UC20093.3.1.4" phases=2 conn=delta model=2 kv=0.38 kw = 155.84816457135736 pf=0.92 status=variable vmaxpu=1.5 vminpu=0.93 daily="RES_7_DO" 
New "Load.BT_7733_M2" bus1="UC20093.3.1.4" phases=2 conn=delta model=3 kv=0.38 kw = 155.84816457135736 pf=0.92 status=variable vmaxpu=1.5 vminpu=0.93 daily="RES_7_DO"
 
New "Load.BT_7734_M1" bus1="UC20094.2.3.4" phases=2 conn=delta model=2 kv=0.38 kw = 0.0 pf=0.92 status=variable vmaxpu=1.5 vminpu=0.93 daily="RES_7_DO" 
New "Load.BT_7734_M2" bus1="UC20094.2.3.4" phases=2 conn=delta model=3 kv=0.38 kw = 0.0 pf=0.92 status=variable vmaxpu=1.5 vminpu=0.93 daily="RES_7_DO"
 
New "Load.BT_2245_M1" bus1="UC20095.1.2.4" phases=2 conn=delta model=2 kv=0.38 kw = 743.329245134543 pf=0.92 status=variable vmaxpu=1.5 vminpu=0.93 daily="RES_3_DO" 
New "Load.BT_2245_M2" bus1="UC20095.1.2.4" phases=2 conn=delta model=3 kv=0.38 kw = 743.329245134543 pf=0.92 status=variable vmaxpu=1.5 vminpu=0.93 daily="RES_3_DO"
 
New "Load.BT_1794_M1" bus1="UC15505.3.4" phases=1 conn=delta model=2 kv=0.22 kw = 56.79457278769743 pf=0.92 status=variable vmaxpu=1.5 vminpu=0.93 daily="RES_2_DO" 
New "Load.BT_1794_M2" bus1="UC15505.3.4" phases=1 conn=delta model=3 kv=0.22 kw = 56.79457278769743 pf=0.92 status=variable vmaxpu=1.5 vminpu=0.93 daily="RES_2_DO"
 
New "Load.BT_657_M1" bus1="UC14583.1.4" phases=1 conn=delta model=2 kv=0.22 kw = 275.0052998141139 pf=0.92 status=variable vmaxpu=1.5 vminpu=0.93 daily="RES_2_DO" 
New "Load.BT_657_M2" bus1="UC14583.1.4" phases=1 conn=delta model=3 kv=0.22 kw = 275.0052998141139 pf=0.92 status=variable vmaxpu=1.5 vminpu=0.93 daily="RES_2_DO"
 
New "Load.BT_1284_M1" bus1="UC13787.3.1.4" phases=2 conn=delta model=2 kv=0.38 kw = 325.8214965188958 pf=0.92 status=variable vmaxpu=1.5 vminpu=0.93 daily="RES_2_DO" 
New "Load.BT_1284_M2" bus1="UC13787.3.1.4" phases=2 conn=delta model=3 kv=0.38 kw = 325.8214965188958 pf=0.92 status=variable vmaxpu=1.5 vminpu=0.93 daily="RES_2_DO"
 
New "Load.BT_7306_M1" bus1="UC15143.3.4" phases=1 conn=delta model=2 kv=0.22 kw = 334.78906064326907 pf=0.92 status=variable vmaxpu=1.5 vminpu=0.93 daily="RES_2_DO" 
New "Load.BT_7306_M2" bus1="UC15143.3.4" phases=1 conn=delta model=3 kv=0.22 kw = 334.78906064326907 pf=0.92 status=variable vmaxpu=1.5 vminpu=0.93 daily="RES_2_DO"
 
New "Load.BT_7829_M1" bus1="UC15152.2.4" phases=1 conn=delta model=2 kv=0.22 kw = 197.2864107362121 pf=0.92 status=variable vmaxpu=1.5 vminpu=0.93 daily="RES_2_DO" 
New "Load.BT_7829_M2" bus1="UC15152.2.4" phases=1 conn=delta model=3 kv=0.22 kw = 197.2864107362121 pf=0.92 status=variable vmaxpu=1.5 vminpu=0.93 daily="RES_2_DO"
 
New "Load.BT_2405_M1" bus1="UC4970.2.3.4" phases=2 conn=delta model=2 kv=0.38 kw = 1855.214135186744 pf=0.92 status=variable vmaxpu=1.5 vminpu=0.93 daily="RES_4_DO" 
New "Load.BT_2405_M2" bus1="UC4970.2.3.4" phases=2 conn=delta model=3 kv=0.38 kw = 1855.214135186744 pf=0.92 status=variable vmaxpu=1.5 vminpu=0.93 daily="RES_4_DO"
 
New "Load.BT_2823_M1" bus1="UC4516.2.4" phases=1 conn=delta model=2 kv=0.22 kw = 155.4377781558035 pf=0.92 status=variable vmaxpu=1.5 vminpu=0.93 daily="RES_2_DO" 
New "Load.BT_2823_M2" bus1="UC4516.2.4" phases=1 conn=delta model=3 kv=0.22 kw = 155.4377781558035 pf=0.92 status=variable vmaxpu=1.5 vminpu=0.93 daily="RES_2_DO"
 
New "Load.BT_7463_M1" bus1="UC4971.2.3.4" phases=2 conn=delta model=2 kv=0.38 kw = 497.4565469179423 pf=0.92 status=variable vmaxpu=1.5 vminpu=0.93 daily="RES_1_DO" 
New "Load.BT_7463_M2" bus1="UC4971.2.3.4" phases=2 conn=delta model=3 kv=0.38 kw = 497.4565469179423 pf=0.92 status=variable vmaxpu=1.5 vminpu=0.93 daily="RES_1_DO"
 
New "Load.BT_2049_M1" bus1="UC4838.2.3.4" phases=2 conn=delta model=2 kv=0.38 kw = 227.17468975337223 pf=0.92 status=variable vmaxpu=1.5 vminpu=0.93 daily="RES_13_DO" 
New "Load.BT_2049_M2" bus1="UC4838.2.3.4" phases=2 conn=delta model=3 kv=0.38 kw = 227.17468975337223 pf=0.92 status=variable vmaxpu=1.5 vminpu=0.93 daily="RES_13_DO"
 
New "Load.BT_874_M1" bus1="UC13502.1.2.3.4" phases=3 conn=delta model=2 kv=0.38 kw = 3596.932587761727 pf=0.92 status=variable vmaxpu=1.5 vminpu=0.93 daily="RES_13_DO" 
New "Load.BT_874_M2" bus1="UC13502.1.2.3.4" phases=3 conn=delta model=3 kv=0.38 kw = 3596.932587761727 pf=0.92 status=variable vmaxpu=1.5 vminpu=0.93 daily="RES_13_DO"
 
New "Load.BT_893_M1" bus1="UC9729.1.2.3.4" phases=3 conn=delta model=2 kv=0.38 kw = 1382.1409657221159 pf=0.92 status=variable vmaxpu=1.5 vminpu=0.93 daily="COM_1_DO" 
New "Load.BT_893_M2" bus1="UC9729.1.2.3.4" phases=3 conn=delta model=3 kv=0.38 kw = 1382.1409657221159 pf=0.92 status=variable vmaxpu=1.5 vminpu=0.93 daily="COM_1_DO"
 
New "Load.BT_6901_M1" bus1="UC15134.3.4" phases=1 conn=delta model=2 kv=0.22 kw = 573.9241039598899 pf=0.92 status=variable vmaxpu=1.5 vminpu=0.93 daily="RES_2_DO" 
New "Load.BT_6901_M2" bus1="UC15134.3.4" phases=1 conn=delta model=3 kv=0.22 kw = 573.9241039598899 pf=0.92 status=variable vmaxpu=1.5 vminpu=0.93 daily="RES_2_DO"
 
New "Load.BT_2271_M1" bus1="UC3269.2.4" phases=1 conn=delta model=2 kv=0.22 kw = 233.15666723370526 pf=0.92 status=variable vmaxpu=1.5 vminpu=0.93 daily="RES_2_DO" 
New "Load.BT_2271_M2" bus1="UC3269.2.4" phases=1 conn=delta model=3 kv=0.22 kw = 233.15666723370526 pf=0.92 status=variable vmaxpu=1.5 vminpu=0.93 daily="RES_2_DO"
 
New "Load.BT_363_M1" bus1="UC8092.3.4" phases=1 conn=delta model=2 kv=0.22 kw = 280.82224422787067 pf=0.92 status=variable vmaxpu=1.5 vminpu=0.93 daily="RES_1_DO" 
New "Load.BT_363_M2" bus1="UC8092.3.4" phases=1 conn=delta model=3 kv=0.22 kw = 280.82224422787067 pf=0.92 status=variable vmaxpu=1.5 vminpu=0.93 daily="RES_1_DO"
 
New "Load.BT_1388_M1" bus1="UC16119.1.2.3.4" phases=3 conn=delta model=2 kv=0.38 kw = 412.45708114172817 pf=0.92 status=variable vmaxpu=1.5 vminpu=0.93 daily="RES_3_DO" 
New "Load.BT_1388_M2" bus1="UC16119.1.2.3.4" phases=3 conn=delta model=3 kv=0.38 kw = 412.45708114172817 pf=0.92 status=variable vmaxpu=1.5 vminpu=0.93 daily="RES_3_DO"
 
New "Load.BT_7601_M1" bus1="UC14406.1.4" phases=1 conn=delta model=2 kv=0.22 kw = 929.1615564181787 pf=0.92 status=variable vmaxpu=1.5 vminpu=0.93 daily="RES_3_DO" 
New "Load.BT_7601_M2" bus1="UC14406.1.4" phases=1 conn=delta model=3 kv=0.22 kw = 929.1615564181787 pf=0.92 status=variable vmaxpu=1.5 vminpu=0.93 daily="RES_3_DO"
 
New "Load.BT_984_M1" bus1="UC3585.1.2.3.4" phases=3 conn=delta model=2 kv=0.38 kw = 1414.1385639144964 pf=0.92 status=variable vmaxpu=1.5 vminpu=0.93 daily="RES_3_DO" 
New "Load.BT_984_M2" bus1="UC3585.1.2.3.4" phases=3 conn=delta model=3 kv=0.38 kw = 1414.1385639144964 pf=0.92 status=variable vmaxpu=1.5 vminpu=0.93 daily="RES_3_DO"
 
New "Load.BT_6510_M1" bus1="UC16127.1.4" phases=1 conn=delta model=2 kv=0.22 kw = 31.169632914271478 pf=0.92 status=variable vmaxpu=1.5 vminpu=0.93 daily="RES_7_DO" 
New "Load.BT_6510_M2" bus1="UC16127.1.4" phases=1 conn=delta model=3 kv=0.22 kw = 31.169632914271478 pf=0.92 status=variable vmaxpu=1.5 vminpu=0.93 daily="RES_7_DO"
 
New "Load.BT_2175_M1" bus1="UC20134.1.2.3.4" phases=3 conn=delta model=2 kv=0.38 kw = 50.35094547690007 pf=0.92 status=variable vmaxpu=1.5 vminpu=0.93 daily="RES_7_DO" 
New "Load.BT_2175_M2" bus1="UC20134.1.2.3.4" phases=3 conn=delta model=3 kv=0.38 kw = 50.35094547690007 pf=0.92 status=variable vmaxpu=1.5 vminpu=0.93 daily="RES_7_DO"
 
New "Load.BT_6508_M1" bus1="UC15833.1.2.4" phases=2 conn=delta model=2 kv=0.38 kw = 32.09397076889951 pf=0.92 status=variable vmaxpu=1.5 vminpu=0.93 daily="RES_1_DO" 
New "Load.BT_6508_M2" bus1="UC15833.1.2.4" phases=2 conn=delta model=3 kv=0.38 kw = 32.09397076889951 pf=0.92 status=variable vmaxpu=1.5 vminpu=0.93 daily="RES_1_DO"
 
New "Load.BT_2830_M1" bus1="UC3356.1.4" phases=1 conn=delta model=2 kv=0.22 kw = 263.0485476482828 pf=0.92 status=variable vmaxpu=1.5 vminpu=0.93 daily="RES_2_DO" 
New "Load.BT_2830_M2" bus1="UC3356.1.4" phases=1 conn=delta model=3 kv=0.22 kw = 263.0485476482828 pf=0.92 status=variable vmaxpu=1.5 vminpu=0.93 daily="RES_2_DO"
 
New "Load.BT_2830_M1" bus1="UC3356.2.4" phases=1 conn=delta model=2 kv=0.22 kw = 0.0 pf=0.92 status=variable vmaxpu=1.5 vminpu=0.93 daily="RES_12_DO" 
New "Load.BT_2830_M2" bus1="UC3356.2.4" phases=1 conn=delta model=3 kv=0.22 kw = 0.0 pf=0.92 status=variable vmaxpu=1.5 vminpu=0.93 daily="RES_12_DO"
 
New "Load.BT_7605_M1" bus1="UC11738.3.4" phases=1 conn=delta model=2 kv=0.22 kw = 246.23213497566363 pf=0.92 status=variable vmaxpu=1.5 vminpu=0.93 daily="RES_5_DO" 
New "Load.BT_7605_M2" bus1="UC11738.3.4" phases=1 conn=delta model=3 kv=0.22 kw = 246.23213497566363 pf=0.92 status=variable vmaxpu=1.5 vminpu=0.93 daily="RES_5_DO"
 
New "Load.BT_7725_M1" bus1="UC20089.3.4" phases=1 conn=delta model=2 kv=0.22 kw = 101.63239340956382 pf=0.92 status=variable vmaxpu=1.5 vminpu=0.93 daily="RES_2_DO" 
New "Load.BT_7725_M2" bus1="UC20089.3.4" phases=1 conn=delta model=3 kv=0.22 kw = 101.63239340956382 pf=0.92 status=variable vmaxpu=1.5 vminpu=0.93 daily="RES_2_DO"
 
New "Load.BT_2519_M1" bus1="UC15842.2.4" phases=1 conn=delta model=2 kv=0.22 kw = 444.1845489218611 pf=0.92 status=variable vmaxpu=1.5 vminpu=0.93 daily="RES_3_DO" 
New "Load.BT_2519_M2" bus1="UC15842.2.4" phases=1 conn=delta model=3 kv=0.22 kw = 444.1845489218611 pf=0.92 status=variable vmaxpu=1.5 vminpu=0.93 daily="RES_3_DO"
 
New "Load.BT_6668_M1" bus1="UC15843.2.3.4" phases=2 conn=delta model=2 kv=0.38 kw = 254.07726858712107 pf=0.92 status=variable vmaxpu=1.5 vminpu=0.93 daily="RES_1_DO" 
New "Load.BT_6668_M2" bus1="UC15843.2.3.4" phases=2 conn=delta model=3 kv=0.38 kw = 254.07726858712107 pf=0.92 status=variable vmaxpu=1.5 vminpu=0.93 daily="RES_1_DO"
 
New "Load.BT_7732_M1" bus1="UC20090.2.3.4" phases=2 conn=delta model=2 kv=0.38 kw = 363.2484276752521 pf=0.92 status=variable vmaxpu=1.5 vminpu=0.93 daily="RES_12_DO" 
New "Load.BT_7732_M2" bus1="UC20090.2.3.4" phases=2 conn=delta model=3 kv=0.38 kw = 363.2484276752521 pf=0.92 status=variable vmaxpu=1.5 vminpu=0.93 daily="RES_12_DO"
 
New "Load.BT_7733_M1" bus1="UC20091.2.3.4" phases=2 conn=delta model=2 kv=0.38 kw = 0.0 pf=0.92 status=variable vmaxpu=1.5 vminpu=0.93 daily="RES_5_DO" 
New "Load.BT_7733_M2" bus1="UC20091.2.3.4" phases=2 conn=delta model=3 kv=0.38 kw = 0.0 pf=0.92 status=variable vmaxpu=1.5 vminpu=0.93 daily="RES_5_DO"
 
New "Load.BT_2860_M1" bus1="UC2244.1.4" phases=1 conn=delta model=2 kv=0.22 kw = 541.7242601811184 pf=0.92 status=variable vmaxpu=1.5 vminpu=0.93 daily="RES_13_DO" 
New "Load.BT_2860_M2" bus1="UC2244.1.4" phases=1 conn=delta model=3 kv=0.22 kw = 541.7242601811184 pf=0.92 status=variable vmaxpu=1.5 vminpu=0.93 daily="RES_13_DO"
 
New "Load.BT_893_M1" bus1="UC9729.3.4" phases=1 conn=delta model=2 kv=0.22 kw = 387.54445479174336 pf=0.92 status=variable vmaxpu=1.5 vminpu=0.93 daily="COM_1_DO" 
New "Load.BT_893_M2" bus1="UC9729.3.4" phases=1 conn=delta model=3 kv=0.22 kw = 387.54445479174336 pf=0.92 status=variable vmaxpu=1.5 vminpu=0.93 daily="COM_1_DO"
 
New "Load.BT_893_M1" bus1="UC9729.2.4" phases=1 conn=delta model=2 kv=0.22 kw = 401.2964357043943 pf=0.92 status=variable vmaxpu=1.5 vminpu=0.93 daily="RES_10_DO" 
New "Load.BT_893_M2" bus1="UC9729.2.4" phases=1 conn=delta model=3 kv=0.22 kw = 401.2964357043943 pf=0.92 status=variable vmaxpu=1.5 vminpu=0.93 daily="RES_10_DO"
 
New "Load.BT_1939_M1" bus1="UC20043.2.3.4" phases=2 conn=delta model=2 kv=0.38 kw = 1108.9887633808287 pf=0.92 status=variable vmaxpu=1.5 vminpu=0.93 daily="RES_2_DO" 
New "Load.BT_1939_M2" bus1="UC20043.2.3.4" phases=2 conn=delta model=3 kv=0.38 kw = 1108.9887633808287 pf=0.92 status=variable vmaxpu=1.5 vminpu=0.93 daily="RES_2_DO"
 
New "Load.BT_8375_M1" bus1="UC4987.1.2.4" phases=2 conn=delta model=2 kv=0.38 kw = 107.61076949247933 pf=0.92 status=variable vmaxpu=1.5 vminpu=0.93 daily="RES_2_DO" 
New "Load.BT_8375_M2" bus1="UC4987.1.2.4" phases=2 conn=delta model=3 kv=0.38 kw = 107.61076949247933 pf=0.92 status=variable vmaxpu=1.5 vminpu=0.93 daily="RES_2_DO"
 
New "Load.BT_7746_M1" bus1="UC2758.3.4" phases=1 conn=delta model=2 kv=0.22 kw = 155.84816457135736 pf=0.92 status=variable vmaxpu=1.5 vminpu=0.93 daily="RES_7_DO" 
New "Load.BT_7746_M2" bus1="UC2758.3.4" phases=1 conn=delta model=3 kv=0.22 kw = 155.84816457135736 pf=0.92 status=variable vmaxpu=1.5 vminpu=0.93 daily="RES_7_DO"
 
New "Load.BT_830_M1" bus1="UC2488.1.4" phases=1 conn=delta model=2 kv=0.22 kw = 179.35128248746557 pf=0.92 status=variable vmaxpu=1.5 vminpu=0.93 daily="RES_2_DO" 
New "Load.BT_830_M2" bus1="UC2488.1.4" phases=1 conn=delta model=3 kv=0.22 kw = 179.35128248746557 pf=0.92 status=variable vmaxpu=1.5 vminpu=0.93 daily="RES_2_DO"
 
New "Load.BT_830_M1" bus1="UC2488.2.4" phases=1 conn=delta model=2 kv=0.22 kw = 245.11341939953627 pf=0.92 status=variable vmaxpu=1.5 vminpu=0.93 daily="RES_2_DO" 
New "Load.BT_830_M2" bus1="UC2488.2.4" phases=1 conn=delta model=3 kv=0.22 kw = 245.11341939953627 pf=0.92 status=variable vmaxpu=1.5 vminpu=0.93 daily="RES_2_DO"
 
New "Load.BT_830_M1" bus1="UC2488.3.4" phases=1 conn=delta model=2 kv=0.22 kw = 280.9836758970294 pf=0.92 status=variable vmaxpu=1.5 vminpu=0.93 daily="RES_2_DO" 
New "Load.BT_830_M2" bus1="UC2488.3.4" phases=1 conn=delta model=3 kv=0.22 kw = 280.9836758970294 pf=0.92 status=variable vmaxpu=1.5 vminpu=0.93 daily="RES_2_DO"
 
New "Load.BT_1284_M1" bus1="UC14865.2.3.4" phases=2 conn=delta model=2 kv=0.38 kw = 376.5841909149799 pf=0.92 status=variable vmaxpu=1.5 vminpu=0.93 daily="RES_11_DO" 
New "Load.BT_1284_M2" bus1="UC14865.2.3.4" phases=2 conn=delta model=3 kv=0.38 kw = 376.5841909149799 pf=0.92 status=variable vmaxpu=1.5 vminpu=0.93 daily="RES_11_DO"
 
New "Load.BT_7814_M1" bus1="UC15091.1.4" phases=1 conn=delta model=2 kv=0.22 kw = 155.4377781558035 pf=0.92 status=variable vmaxpu=1.5 vminpu=0.93 daily="RES_2_DO" 
New "Load.BT_7814_M2" bus1="UC15091.1.4" phases=1 conn=delta model=3 kv=0.22 kw = 155.4377781558035 pf=0.92 status=variable vmaxpu=1.5 vminpu=0.93 daily="RES_2_DO"
 
New "Load.BT_6653_M1" bus1="UC11683.2.4" phases=1 conn=delta model=2 kv=0.22 kw = 266.0377356897406 pf=0.92 status=variable vmaxpu=1.5 vminpu=0.93 daily="RES_2_DO" 
New "Load.BT_6653_M2" bus1="UC11683.2.4" phases=1 conn=delta model=3 kv=0.22 kw = 266.0377356897406 pf=0.92 status=variable vmaxpu=1.5 vminpu=0.93 daily="RES_2_DO"
 
New "Load.BT_6786_M1" bus1="UC9221.1.4" phases=1 conn=delta model=2 kv=0.22 kw = 38.859444538950875 pf=0.92 status=variable vmaxpu=1.5 vminpu=0.93 daily="RES_2_DO" 
New "Load.BT_6786_M2" bus1="UC9221.1.4" phases=1 conn=delta model=3 kv=0.22 kw = 38.859444538950875 pf=0.92 status=variable vmaxpu=1.5 vminpu=0.93 daily="RES_2_DO"
 
New "Load.BT_7897_M1" bus1="UC3241.3.4" phases=1 conn=delta model=2 kv=0.22 kw = 252.81220293055134 pf=0.92 status=variable vmaxpu=1.5 vminpu=0.93 daily="COM_1_DO" 
New "Load.BT_7897_M2" bus1="UC3241.3.4" phases=1 conn=delta model=3 kv=0.22 kw = 252.81220293055134 pf=0.92 status=variable vmaxpu=1.5 vminpu=0.93 daily="COM_1_DO"
 
New "Load.BT_6905_M1" bus1="UC15112.3.4" phases=1 conn=delta model=2 kv=0.22 kw = 385.12764922679406 pf=0.92 status=variable vmaxpu=1.5 vminpu=0.93 daily="RES_1_DO" 
New "Load.BT_6905_M2" bus1="UC15112.3.4" phases=1 conn=delta model=3 kv=0.22 kw = 385.12764922679406 pf=0.92 status=variable vmaxpu=1.5 vminpu=0.93 daily="RES_1_DO"
 
New "Load.BT_7836_M1" bus1="UC16108.3.4" phases=1 conn=delta model=2 kv=0.22 kw = 19.1813125626286 pf=0.92 status=variable vmaxpu=1.5 vminpu=0.93 daily="RES_7_DO" 
New "Load.BT_7836_M2" bus1="UC16108.3.4" phases=1 conn=delta model=3 kv=0.22 kw = 19.1813125626286 pf=0.92 status=variable vmaxpu=1.5 vminpu=0.93 daily="RES_7_DO"
 
New "Load.BT_2994_M1" bus1="UC20129.3.4" phases=1 conn=delta model=2 kv=0.22 kw = 33.567296984600056 pf=0.92 status=variable vmaxpu=1.5 vminpu=0.93 daily="RES_7_DO" 
New "Load.BT_2994_M2" bus1="UC20129.3.4" phases=1 conn=delta model=3 kv=0.22 kw = 33.567296984600056 pf=0.92 status=variable vmaxpu=1.5 vminpu=0.93 daily="RES_7_DO"
 
New "Load.BT_2600_M1" bus1="UC16111.2.4" phases=1 conn=delta model=2 kv=0.22 kw = 52.74860954722866 pf=0.92 status=variable vmaxpu=1.5 vminpu=0.93 daily="RES_7_DO" 
New "Load.BT_2600_M2" bus1="UC16111.2.4" phases=1 conn=delta model=3 kv=0.22 kw = 52.74860954722866 pf=0.92 status=variable vmaxpu=1.5 vminpu=0.93 daily="RES_7_DO"
 
New "Load.BT_8384_M1" bus1="UC3883.1.4" phases=1 conn=delta model=2 kv=0.22 kw = 0.0 pf=0.92 status=variable vmaxpu=1.5 vminpu=0.93 daily="COM_5_DO" 
New "Load.BT_8384_M2" bus1="UC3883.1.4" phases=1 conn=delta model=3 kv=0.22 kw = 0.0 pf=0.92 status=variable vmaxpu=1.5 vminpu=0.93 daily="COM_5_DO"
 
New "Load.BT_8384_M1" bus1="UC3883.2.4" phases=1 conn=delta model=2 kv=0.22 kw = 28.341609848148334 pf=0.92 status=variable vmaxpu=1.5 vminpu=0.93 daily="COM_5_DO" 
New "Load.BT_8384_M2" bus1="UC3883.2.4" phases=1 conn=delta model=3 kv=0.22 kw = 28.341609848148334 pf=0.92 status=variable vmaxpu=1.5 vminpu=0.93 daily="COM_5_DO"
 
New "Load.BT_2055_M1" bus1="UC4114.1.4" phases=1 conn=delta model=2 kv=0.22 kw = 0.0 pf=0.92 status=variable vmaxpu=1.5 vminpu=0.93 daily="RES_7_DO" 
New "Load.BT_2055_M2" bus1="UC4114.1.4" phases=1 conn=delta model=3 kv=0.22 kw = 0.0 pf=0.92 status=variable vmaxpu=1.5 vminpu=0.93 daily="RES_7_DO"
 
New "Load.BT_1547_M1" bus1="UC14453.3.4" phases=1 conn=delta model=2 kv=0.22 kw = 19.1813125626286 pf=0.92 status=variable vmaxpu=1.5 vminpu=0.93 daily="RES_7_DO" 
New "Load.BT_1547_M2" bus1="UC14453.3.4" phases=1 conn=delta model=3 kv=0.22 kw = 19.1813125626286 pf=0.92 status=variable vmaxpu=1.5 vminpu=0.93 daily="RES_7_DO"
 
New "Load.BT_7858_M1" bus1="UC16118.2.4" phases=1 conn=delta model=2 kv=0.22 kw = 0.0 pf=0.92 status=variable vmaxpu=1.5 vminpu=0.93 daily="RES_7_DO" 
New "Load.BT_7858_M2" bus1="UC16118.2.4" phases=1 conn=delta model=3 kv=0.22 kw = 0.0 pf=0.92 status=variable vmaxpu=1.5 vminpu=0.93 daily="RES_7_DO"
 
New "Load.BT_2598_M1" bus1="UC15828.2.4" phases=1 conn=delta model=2 kv=0.22 kw = 448.37820621866393 pf=0.92 status=variable vmaxpu=1.5 vminpu=0.93 daily="RES_2_DO" 
New "Load.BT_2598_M2" bus1="UC15828.2.4" phases=1 conn=delta model=3 kv=0.22 kw = 448.37820621866393 pf=0.92 status=variable vmaxpu=1.5 vminpu=0.93 daily="RES_2_DO"
 
New "Load.BT_1076_M1" bus1="UC5746.1.4" phases=1 conn=delta model=2 kv=0.22 kw = 281.0763050193896 pf=0.92 status=variable vmaxpu=1.5 vminpu=0.93 daily="RES_5_DO" 
New "Load.BT_1076_M2" bus1="UC5746.1.4" phases=1 conn=delta model=3 kv=0.22 kw = 281.0763050193896 pf=0.92 status=variable vmaxpu=1.5 vminpu=0.93 daily="RES_5_DO"
 
New "Load.BT_1224_M1" bus1="UC797.2.4" phases=1 conn=delta model=2 kv=0.22 kw = 625.484364808335 pf=0.92 status=variable vmaxpu=1.5 vminpu=0.93 daily="RES_3_DO" 
New "Load.BT_1224_M2" bus1="UC797.2.4" phases=1 conn=delta model=3 kv=0.22 kw = 625.484364808335 pf=0.92 status=variable vmaxpu=1.5 vminpu=0.93 daily="RES_3_DO"
 
New "Load.BT_2144_M1" bus1="UC20086.1.4" phases=1 conn=delta model=2 kv=0.22 kw = 669.5781212865381 pf=0.92 status=variable vmaxpu=1.5 vminpu=0.93 daily="RES_2_DO" 
New "Load.BT_2144_M2" bus1="UC20086.1.4" phases=1 conn=delta model=3 kv=0.22 kw = 669.5781212865381 pf=0.92 status=variable vmaxpu=1.5 vminpu=0.93 daily="RES_2_DO"
 
New "Load.BT_618_M1" bus1="UC15794.3.1.4" phases=2 conn=delta model=2 kv=0.38 kw = 612.7835484988408 pf=0.92 status=variable vmaxpu=1.5 vminpu=0.93 daily="RES_2_DO" 
New "Load.BT_618_M2" bus1="UC15794.3.1.4" phases=2 conn=delta model=3 kv=0.38 kw = 612.7835484988408 pf=0.92 status=variable vmaxpu=1.5 vminpu=0.93 daily="RES_2_DO"
 
New "Load.BT_7606_M1" bus1="UC11739.3.4" phases=1 conn=delta model=2 kv=0.22 kw = 185.3296585703811 pf=0.92 status=variable vmaxpu=1.5 vminpu=0.93 daily="RES_2_DO" 
New "Load.BT_7606_M2" bus1="UC11739.3.4" phases=1 conn=delta model=3 kv=0.22 kw = 185.3296585703811 pf=0.92 status=variable vmaxpu=1.5 vminpu=0.93 daily="RES_2_DO"
 
New "Load.BT_6647_M1" bus1="UC9436.1.4" phases=1 conn=delta model=2 kv=0.22 kw = 316.8539323945225 pf=0.92 status=variable vmaxpu=1.5 vminpu=0.93 daily="RES_2_DO" 
New "Load.BT_6647_M2" bus1="UC9436.1.4" phases=1 conn=delta model=3 kv=0.22 kw = 316.8539323945225 pf=0.92 status=variable vmaxpu=1.5 vminpu=0.93 daily="RES_2_DO"
 
New "Load.BT_1485_M1" bus1="UC15792.1.2.3.4" phases=3 conn=delta model=2 kv=0.38 kw = 1001.3779938883495 pf=0.92 status=variable vmaxpu=1.5 vminpu=0.93 daily="RES_2_DO" 
New "Load.BT_1485_M2" bus1="UC15792.1.2.3.4" phases=3 conn=delta model=3 kv=0.38 kw = 1001.3779938883495 pf=0.92 status=variable vmaxpu=1.5 vminpu=0.93 daily="RES_2_DO"
 
New "Load.BT_6503_M1" bus1="UC15476.1.4" phases=1 conn=delta model=2 kv=0.22 kw = 421.47551384554407 pf=0.92 status=variable vmaxpu=1.5 vminpu=0.93 daily="RES_2_DO" 
New "Load.BT_6503_M2" bus1="UC15476.1.4" phases=1 conn=delta model=3 kv=0.22 kw = 421.47551384554407 pf=0.92 status=variable vmaxpu=1.5 vminpu=0.93 daily="RES_2_DO"
 
New "Load.BT_7350_M1" bus1="UC20128.1.4" phases=1 conn=delta model=2 kv=0.22 kw = 1092.3313907160054 pf=0.92 status=variable vmaxpu=1.5 vminpu=0.93 daily="RES_3_DO" 
New "Load.BT_7350_M2" bus1="UC20128.1.4" phases=1 conn=delta model=3 kv=0.22 kw = 1092.3313907160054 pf=0.92 status=variable vmaxpu=1.5 vminpu=0.93 daily="RES_3_DO"
 
New "Load.BT_7853_M1" bus1="UC16098.2.3.4" phases=2 conn=delta model=2 kv=0.38 kw = 31.169632914271478 pf=0.92 status=variable vmaxpu=1.5 vminpu=0.93 daily="RES_7_DO" 
New "Load.BT_7853_M2" bus1="UC16098.2.3.4" phases=2 conn=delta model=3 kv=0.38 kw = 31.169632914271478 pf=0.92 status=variable vmaxpu=1.5 vminpu=0.93 daily="RES_7_DO"
 
New "Load.BT_2823_M1" bus1="UC4516.3.1.4" phases=2 conn=delta model=2 kv=0.38 kw = 684.4068049714391 pf=0.92 status=variable vmaxpu=1.5 vminpu=0.93 daily="RES_3_DO" 
New "Load.BT_2823_M2" bus1="UC4516.3.1.4" phases=2 conn=delta model=3 kv=0.38 kw = 684.4068049714391 pf=0.92 status=variable vmaxpu=1.5 vminpu=0.93 daily="RES_3_DO"
 
New "Load.BT_1088_M1" bus1="UC5634.3.4" phases=1 conn=delta model=2 kv=0.22 kw = 598.2893924253639 pf=0.92 status=variable vmaxpu=1.5 vminpu=0.93 daily="RES_3_DO" 
New "Load.BT_1088_M2" bus1="UC5634.3.4" phases=1 conn=delta model=3 kv=0.22 kw = 598.2893924253639 pf=0.92 status=variable vmaxpu=1.5 vminpu=0.93 daily="RES_3_DO"
 
New "Load.BT_6907_M1" bus1="UC10830.1.4" phases=1 conn=delta model=2 kv=0.22 kw = 129.47385979774307 pf=0.92 status=variable vmaxpu=1.5 vminpu=0.93 daily="RES_7_DO" 
New "Load.BT_6907_M2" bus1="UC10830.1.4" phases=1 conn=delta model=3 kv=0.22 kw = 129.47385979774307 pf=0.92 status=variable vmaxpu=1.5 vminpu=0.93 daily="RES_7_DO"
 
New "Load.BT_2519_M1" bus1="UC15768.1.4" phases=1 conn=delta model=2 kv=0.22 kw = 0.0 pf=0.92 status=variable vmaxpu=1.5 vminpu=0.93 daily="RES_2_DO" 
New "Load.BT_2519_M2" bus1="UC15768.1.4" phases=1 conn=delta model=3 kv=0.22 kw = 0.0 pf=0.92 status=variable vmaxpu=1.5 vminpu=0.93 daily="RES_2_DO"
 
New "Load.BT_7950_M1" bus1="UC15770.1.2.4" phases=2 conn=delta model=2 kv=0.38 kw = 1019.313122137096 pf=0.92 status=variable vmaxpu=1.5 vminpu=0.93 daily="RES_2_DO" 
New "Load.BT_7950_M2" bus1="UC15770.1.2.4" phases=2 conn=delta model=3 kv=0.38 kw = 1019.313122137096 pf=0.92 status=variable vmaxpu=1.5 vminpu=0.93 daily="RES_2_DO"
 
New "Load.BT_7736_M1" bus1="UC20080.1.2.4" phases=2 conn=delta model=2 kv=0.38 kw = 206.2539748605854 pf=0.92 status=variable vmaxpu=1.5 vminpu=0.93 daily="RES_2_DO" 
New "Load.BT_7736_M2" bus1="UC20080.1.2.4" phases=2 conn=delta model=3 kv=0.38 kw = 206.2539748605854 pf=0.92 status=variable vmaxpu=1.5 vminpu=0.93 daily="RES_2_DO"
 
New "Load.BT_7736_M1" bus1="UC20078.2.3.4" phases=2 conn=delta model=2 kv=0.38 kw = 481.25927467469927 pf=0.92 status=variable vmaxpu=1.5 vminpu=0.93 daily="RES_2_DO" 