New "Load.BT_15168_0_M1" bus1="UC15168.1.4" phases=1 conn=delta model=2 kv=0.22 kw = 0.459646473958221 pf=0.92 status=variable vmaxpu=1.5 vminpu=0.92 daily="RES_2_SA" 
New "Load.BT_15168_0_M2" bus1="UC15168.1.4" phases=1 conn=delta model=3 kv=0.22 kw = 0.459646473958221 pf=0.92 status=variable vmaxpu=1.5 vminpu=0.92 daily="RES_2_SA"
 
New "Load.BT_15169_1_M1" bus1="UC15169.1.2.3.4" phases=3 conn=delta model=2 kv=0.38 kw = 0.5205055889770795 pf=0.92 status=variable vmaxpu=1.5 vminpu=0.92 daily="RES_2_SA" 
New "Load.BT_15169_1_M2" bus1="UC15169.1.2.3.4" phases=3 conn=delta model=3 kv=0.38 kw = 0.5205055889770795 pf=0.92 status=variable vmaxpu=1.5 vminpu=0.92 daily="RES_2_SA"
 
New "Load.BT_15174_4_M1" bus1="UC15174.1.4" phases=1 conn=delta model=2 kv=0.22 kw = 0.4616906195306989 pf=0.92 status=variable vmaxpu=1.5 vminpu=0.92 daily="RES_10_SA" 
New "Load.BT_15174_4_M2" bus1="UC15174.1.4" phases=1 conn=delta model=3 kv=0.22 kw = 0.4616906195306989 pf=0.92 status=variable vmaxpu=1.5 vminpu=0.92 daily="RES_10_SA"
 
New "Load.BT_13788_5_M1" bus1="UC13788.3.4" phases=1 conn=delta model=2 kv=0.22 kw = 0.2354286817834791 pf=0.92 status=variable vmaxpu=1.5 vminpu=0.92 daily="RES_2_SA" 
New "Load.BT_13788_5_M2" bus1="UC13788.3.4" phases=1 conn=delta model=3 kv=0.22 kw = 0.2354286817834791 pf=0.92 status=variable vmaxpu=1.5 vminpu=0.92 daily="RES_2_SA"
 
New "Load.BT_15175_6_M1" bus1="UC15175.1.2.3.4" phases=3 conn=delta model=2 kv=0.38 kw = 0.6085911501885855 pf=0.92 status=variable vmaxpu=1.5 vminpu=0.92 daily="RES_2_SA" 
New "Load.BT_15175_6_M2" bus1="UC15175.1.2.3.4" phases=3 conn=delta model=3 kv=0.38 kw = 0.6085911501885855 pf=0.92 status=variable vmaxpu=1.5 vminpu=0.92 daily="RES_2_SA"
 
New "Load.BT_10794_8_M1" bus1="ET1_159.2.3.4" phases=2 conn=delta model=2 kv=0.38 kw = 0.3551649804187754 pf=0.92 status=variable vmaxpu=1.5 vminpu=0.92 daily="RES_3_SA" 
New "Load.BT_10794_8_M2" bus1="ET1_159.2.3.4" phases=2 conn=delta model=3 kv=0.38 kw = 0.3551649804187754 pf=0.92 status=variable vmaxpu=1.5 vminpu=0.92 daily="RES_3_SA"
 
New "Load.BT_15178_9_M1" bus1="UC15178.3.4" phases=1 conn=delta model=2 kv=0.22 kw = 0.48173104804331685 pf=0.92 status=variable vmaxpu=1.5 vminpu=0.92 daily="RES_1_SA" 
New "Load.BT_15178_9_M2" bus1="UC15178.3.4" phases=1 conn=delta model=3 kv=0.22 kw = 0.48173104804331685 pf=0.92 status=variable vmaxpu=1.5 vminpu=0.92 daily="RES_1_SA"
 
New "Load.BT_15180_11_M1" bus1="UC15180.1.4" phases=1 conn=delta model=2 kv=0.22 kw = 0.30109246377751064 pf=0.92 status=variable vmaxpu=1.5 vminpu=0.92 daily="RES_2_SA" 
New "Load.BT_15180_11_M2" bus1="UC15180.1.4" phases=1 conn=delta model=3 kv=0.22 kw = 0.30109246377751064 pf=0.92 status=variable vmaxpu=1.5 vminpu=0.92 daily="RES_2_SA"
 
New "Load.BT_15581_15_M1" bus1="UC15581.1.2.3.4" phases=3 conn=delta model=2 kv=0.38 kw = 0.0 pf=0.92 status=variable vmaxpu=1.5 vminpu=0.92 daily="RES_3_SA" 
New "Load.BT_15581_15_M2" bus1="UC15581.1.2.3.4" phases=3 conn=delta model=3 kv=0.38 kw = 0.0 pf=0.92 status=variable vmaxpu=1.5 vminpu=0.92 daily="RES_3_SA"
 
New "Load.BT_15838_16_M1" bus1="UC15838.3.4" phases=1 conn=delta model=2 kv=0.22 kw = 0.0 pf=0.92 status=variable vmaxpu=1.5 vminpu=0.92 daily="RES_7_SA" 
New "Load.BT_15838_16_M2" bus1="UC15838.3.4" phases=1 conn=delta model=3 kv=0.22 kw = 0.0 pf=0.92 status=variable vmaxpu=1.5 vminpu=0.92 daily="RES_7_SA"
 
New "Load.BT_14653_19_M1" bus1="UC14653.1.2.3.4" phases=3 conn=delta model=2 kv=0.38 kw = 0.0 pf=0.92 status=variable vmaxpu=1.5 vminpu=0.92 daily="RES_3_SA" 
New "Load.BT_14653_19_M2" bus1="UC14653.1.2.3.4" phases=3 conn=delta model=3 kv=0.38 kw = 0.0 pf=0.92 status=variable vmaxpu=1.5 vminpu=0.92 daily="RES_3_SA"
 
New "Load.BT_10919_21_M1" bus1="UC10919.3.4" phases=1 conn=delta model=2 kv=0.22 kw = 0.0 pf=0.92 status=variable vmaxpu=1.5 vminpu=0.92 daily="RES_3_SA" 
New "Load.BT_10919_21_M2" bus1="UC10919.3.4" phases=1 conn=delta model=3 kv=0.22 kw = 0.0 pf=0.92 status=variable vmaxpu=1.5 vminpu=0.92 daily="RES_3_SA"
 
New "Load.BT_16152_22_M1" bus1="UC16152.1.4" phases=1 conn=delta model=2 kv=0.22 kw = 0.0 pf=0.92 status=variable vmaxpu=1.5 vminpu=0.92 daily="RES_7_SA" 
New "Load.BT_16152_22_M2" bus1="UC16152.1.4" phases=1 conn=delta model=3 kv=0.22 kw = 0.0 pf=0.92 status=variable vmaxpu=1.5 vminpu=0.92 daily="RES_7_SA"
 
New "Load.BT_2530_24_M1" bus1="UC2530.1.4" phases=1 conn=delta model=2 kv=0.22 kw = 0.0 pf=0.92 status=variable vmaxpu=1.5 vminpu=0.92 daily="RES_3_SA" 
New "Load.BT_2530_24_M2" bus1="UC2530.1.4" phases=1 conn=delta model=3 kv=0.22 kw = 0.0 pf=0.92 status=variable vmaxpu=1.5 vminpu=0.92 daily="RES_3_SA"
 
New "Load.BT_16140_25_M1" bus1="UC16140.1.2.3.4" phases=3 conn=delta model=2 kv=0.38 kw = 0.0 pf=0.92 status=variable vmaxpu=1.5 vminpu=0.92 daily="RES_3_SA" 
New "Load.BT_16140_25_M2" bus1="UC16140.1.2.3.4" phases=3 conn=delta model=3 kv=0.38 kw = 0.0 pf=0.92 status=variable vmaxpu=1.5 vminpu=0.92 daily="RES_3_SA"
 
New "Load.BT_16156_26_M1" bus1="UC16156.3.4" phases=1 conn=delta model=2 kv=0.22 kw = 0.0 pf=0.92 status=variable vmaxpu=1.5 vminpu=0.92 daily="RES_7_SA" 
New "Load.BT_16156_26_M2" bus1="UC16156.3.4" phases=1 conn=delta model=3 kv=0.22 kw = 0.0 pf=0.92 status=variable vmaxpu=1.5 vminpu=0.92 daily="RES_7_SA"
 
New "Load.BT_16132_28_M1" bus1="UC16132.3.4" phases=1 conn=delta model=2 kv=0.22 kw = 0.0 pf=0.92 status=variable vmaxpu=1.5 vminpu=0.92 daily="COM_5_SA" 
New "Load.BT_16132_28_M2" bus1="UC16132.3.4" phases=1 conn=delta model=3 kv=0.22 kw = 0.0 pf=0.92 status=variable vmaxpu=1.5 vminpu=0.92 daily="COM_5_SA"
 
New "Load.BT_8216_30_M1" bus1="UC8216.3.4" phases=1 conn=delta model=2 kv=0.22 kw = 0.0 pf=0.92 status=variable vmaxpu=1.5 vminpu=0.92 daily="RES_3_SA" 
New "Load.BT_8216_30_M2" bus1="UC8216.3.4" phases=1 conn=delta model=3 kv=0.22 kw = 0.0 pf=0.92 status=variable vmaxpu=1.5 vminpu=0.92 daily="RES_3_SA"
 
New "Load.BT_16139_33_M1" bus1="UC16139.2.4" phases=1 conn=delta model=2 kv=0.22 kw = 0.0 pf=0.92 status=variable vmaxpu=1.5 vminpu=0.92 daily="RES_3_SA" 
New "Load.BT_16139_33_M2" bus1="UC16139.2.4" phases=1 conn=delta model=3 kv=0.22 kw = 0.0 pf=0.92 status=variable vmaxpu=1.5 vminpu=0.92 daily="RES_3_SA"
 
New "Load.BT_16135_34_M1" bus1="UC16135.3.4" phases=1 conn=delta model=2 kv=0.22 kw = 0.0 pf=0.92 status=variable vmaxpu=1.5 vminpu=0.92 daily="RES_3_SA" 
New "Load.BT_16135_34_M2" bus1="UC16135.3.4" phases=1 conn=delta model=3 kv=0.22 kw = 0.0 pf=0.92 status=variable vmaxpu=1.5 vminpu=0.92 daily="RES_3_SA"
 
New "Load.BT_16138_35_M1" bus1="UC16138.3.4" phases=1 conn=delta model=2 kv=0.22 kw = 0.0 pf=0.92 status=variable vmaxpu=1.5 vminpu=0.92 daily="COM_5_SA" 
New "Load.BT_16138_35_M2" bus1="UC16138.3.4" phases=1 conn=delta model=3 kv=0.22 kw = 0.0 pf=0.92 status=variable vmaxpu=1.5 vminpu=0.92 daily="COM_5_SA"
 
New "Load.BT_8555_36_M1" bus1="UC8555.3.4" phases=1 conn=delta model=2 kv=0.22 kw = 0.0 pf=0.92 status=variable vmaxpu=1.5 vminpu=0.92 daily="RES_3_SA" 
New "Load.BT_8555_36_M2" bus1="UC8555.3.4" phases=1 conn=delta model=3 kv=0.22 kw = 0.0 pf=0.92 status=variable vmaxpu=1.5 vminpu=0.92 daily="RES_3_SA"
 
New "Load.BT_15362_38_M1" bus1="UC15362.2.3.4" phases=2 conn=delta model=2 kv=0.38 kw = 0.0 pf=0.92 status=variable vmaxpu=1.5 vminpu=0.92 daily="RES_7_SA" 
New "Load.BT_15362_38_M2" bus1="UC15362.2.3.4" phases=2 conn=delta model=3 kv=0.38 kw = 0.0 pf=0.92 status=variable vmaxpu=1.5 vminpu=0.92 daily="RES_7_SA"
 
New "Load.BT_5102_39_M1" bus1="UC5102.1.4" phases=1 conn=delta model=2 kv=0.22 kw = 0.0 pf=0.92 status=variable vmaxpu=1.5 vminpu=0.92 daily="RES_3_SA" 
New "Load.BT_5102_39_M2" bus1="UC5102.1.4" phases=1 conn=delta model=3 kv=0.22 kw = 0.0 pf=0.92 status=variable vmaxpu=1.5 vminpu=0.92 daily="RES_3_SA"
 
New "Load.BT_7753_40_M1" bus1="UC7753.1.4" phases=1 conn=delta model=2 kv=0.22 kw = 0.0 pf=0.92 status=variable vmaxpu=1.5 vminpu=0.92 daily="COM_5_SA" 
New "Load.BT_7753_40_M2" bus1="UC7753.1.4" phases=1 conn=delta model=3 kv=0.22 kw = 0.0 pf=0.92 status=variable vmaxpu=1.5 vminpu=0.92 daily="COM_5_SA"
 
New "Load.BT_12439_42_M1" bus1="UC12439.3.4" phases=1 conn=delta model=2 kv=0.22 kw = 0.09966364246445228 pf=0.92 status=variable vmaxpu=1.5 vminpu=0.92 daily="RES_3_SA" 
New "Load.BT_12439_42_M2" bus1="UC12439.3.4" phases=1 conn=delta model=3 kv=0.22 kw = 0.09966364246445228 pf=0.92 status=variable vmaxpu=1.5 vminpu=0.92 daily="RES_3_SA"
 
New "Load.BT_9732_43_M1" bus1="UC9732.1.4" phases=1 conn=delta model=2 kv=0.22 kw = 0.03042955750942927 pf=0.92 status=variable vmaxpu=1.5 vminpu=0.92 daily="RES_2_SA" 
New "Load.BT_9732_43_M2" bus1="UC9732.1.4" phases=1 conn=delta model=3 kv=0.22 kw = 0.03042955750942927 pf=0.92 status=variable vmaxpu=1.5 vminpu=0.92 daily="RES_2_SA"
 
New "Load.BT_1855_44_M1" bus1="UC1855.1.4" phases=1 conn=delta model=2 kv=0.22 kw = 0.07046844896920464 pf=0.92 status=variable vmaxpu=1.5 vminpu=0.92 daily="RES_2_SA" 
New "Load.BT_1855_44_M2" bus1="UC1855.1.4" phases=1 conn=delta model=3 kv=0.22 kw = 0.07046844896920464 pf=0.92 status=variable vmaxpu=1.5 vminpu=0.92 daily="RES_2_SA"
 
New "Load.BT_1136_45_M1" bus1="UC1136.2.4" phases=1 conn=delta model=2 kv=0.22 kw = 0.26634078621593843 pf=0.92 status=variable vmaxpu=1.5 vminpu=0.92 daily="RES_7_SA" 
New "Load.BT_1136_45_M2" bus1="UC1136.2.4" phases=1 conn=delta model=3 kv=0.22 kw = 0.26634078621593843 pf=0.92 status=variable vmaxpu=1.5 vminpu=0.92 daily="RES_7_SA"
 
New "Load.BT_9732_46_M1" bus1="UC9732.2.4" phases=1 conn=delta model=2 kv=0.22 kw = 0.07156901129523174 pf=0.92 status=variable vmaxpu=1.5 vminpu=0.92 daily="RES_9_SA" 
New "Load.BT_9732_46_M2" bus1="UC9732.2.4" phases=1 conn=delta model=3 kv=0.22 kw = 0.07156901129523174 pf=0.92 status=variable vmaxpu=1.5 vminpu=0.92 daily="RES_9_SA"
 
New "Load.BT_15851_48_M1" bus1="UC15851.3.4" phases=1 conn=delta model=2 kv=0.22 kw = 0.19471973446039195 pf=0.92 status=variable vmaxpu=1.5 vminpu=0.92 daily="RES_7_SA" 
New "Load.BT_15851_48_M2" bus1="UC15851.3.4" phases=1 conn=delta model=3 kv=0.22 kw = 0.19471973446039195 pf=0.92 status=variable vmaxpu=1.5 vminpu=0.92 daily="RES_7_SA"
 
New "Load.BT_15850_49_M1" bus1="UC15850.3.1.4" phases=2 conn=delta model=2 kv=0.38 kw = 0.037449056738349716 pf=0.92 status=variable vmaxpu=1.5 vminpu=0.92 daily="RES_1_SA" 
New "Load.BT_15850_49_M2" bus1="UC15850.3.1.4" phases=2 conn=delta model=3 kv=0.38 kw = 0.037449056738349716 pf=0.92 status=variable vmaxpu=1.5 vminpu=0.92 daily="RES_1_SA"
 
New "Load.BT_15688_53_M1" bus1="UC15688.1.4" phases=1 conn=delta model=2 kv=0.22 kw = 0.0 pf=0.92 status=variable vmaxpu=1.5 vminpu=0.92 daily="RES_3_SA" 
New "Load.BT_15688_53_M2" bus1="UC15688.1.4" phases=1 conn=delta model=3 kv=0.22 kw = 0.0 pf=0.92 status=variable vmaxpu=1.5 vminpu=0.92 daily="RES_3_SA"
 
New "Load.BT_10153_54_M1" bus1="UC10153.2.4" phases=1 conn=delta model=2 kv=0.22 kw = 0.4330838281637109 pf=0.92 status=variable vmaxpu=1.5 vminpu=0.92 daily="RES_3_SA" 
New "Load.BT_10153_54_M2" bus1="UC10153.2.4" phases=1 conn=delta model=3 kv=0.22 kw = 0.4330838281637109 pf=0.92 status=variable vmaxpu=1.5 vminpu=0.92 daily="RES_3_SA"
 
New "Load.BT_15497_56_M1" bus1="UC15497.1.4" phases=1 conn=delta model=2 kv=0.22 kw = 0.47245891922534916 pf=0.92 status=variable vmaxpu=1.5 vminpu=0.92 daily="RES_2_SA" 
New "Load.BT_15497_56_M2" bus1="UC15497.1.4" phases=1 conn=delta model=3 kv=0.22 kw = 0.47245891922534916 pf=0.92 status=variable vmaxpu=1.5 vminpu=0.92 daily="RES_2_SA"
 
New "Load.BT_15497_57_M1" bus1="UC15497.3.4" phases=1 conn=delta model=2 kv=0.22 kw = 0.025624890534256223 pf=0.92 status=variable vmaxpu=1.5 vminpu=0.92 daily="RES_2_SA" 
New "Load.BT_15497_57_M2" bus1="UC15497.3.4" phases=1 conn=delta model=3 kv=0.22 kw = 0.025624890534256223 pf=0.92 status=variable vmaxpu=1.5 vminpu=0.92 daily="RES_2_SA"
 
New "Load.BT_5544_59_M1" bus1="UC5544.2.4" phases=1 conn=delta model=2 kv=0.22 kw = 0.5157009220019065 pf=0.92 status=variable vmaxpu=1.5 vminpu=0.92 daily="RES_2_SA" 
New "Load.BT_5544_59_M2" bus1="UC5544.2.4" phases=1 conn=delta model=3 kv=0.22 kw = 0.5157009220019065 pf=0.92 status=variable vmaxpu=1.5 vminpu=0.92 daily="RES_2_SA"
 
New "Load.BT_15499_60_M1" bus1="UC15499.3.4" phases=1 conn=delta model=2 kv=0.22 kw = 0.14574156491358228 pf=0.92 status=variable vmaxpu=1.5 vminpu=0.92 daily="RES_2_SA" 
New "Load.BT_15499_60_M2" bus1="UC15499.3.4" phases=1 conn=delta model=3 kv=0.22 kw = 0.14574156491358228 pf=0.92 status=variable vmaxpu=1.5 vminpu=0.92 daily="RES_2_SA"
 
New "Load.BT_8603_62_M1" bus1="UC8603.1.2.3.4" phases=3 conn=delta model=2 kv=0.38 kw = 0.5384948797102971 pf=0.92 status=variable vmaxpu=1.5 vminpu=0.92 daily="COM_1_SA" 
New "Load.BT_8603_62_M2" bus1="UC8603.1.2.3.4" phases=3 conn=delta model=3 kv=0.38 kw = 0.5384948797102971 pf=0.92 status=variable vmaxpu=1.5 vminpu=0.92 daily="COM_1_SA"
 
New "Load.BT_15509_63_M1" bus1="UC15509.1.2.4" phases=2 conn=delta model=2 kv=0.38 kw = 0.00800777829195507 pf=0.92 status=variable vmaxpu=1.5 vminpu=0.92 daily="RES_2_SA" 
New "Load.BT_15509_63_M2" bus1="UC15509.1.2.4" phases=2 conn=delta model=3 kv=0.38 kw = 0.00800777829195507 pf=0.92 status=variable vmaxpu=1.5 vminpu=0.92 daily="RES_2_SA"
 
New "Load.BT_15510_65_M1" bus1="UC15510.1.2.3.4" phases=3 conn=delta model=2 kv=0.38 kw = 0.3865911002099296 pf=0.92 status=variable vmaxpu=1.5 vminpu=0.92 daily="COM_1_SA" 
New "Load.BT_15510_65_M2" bus1="UC15510.1.2.3.4" phases=3 conn=delta model=3 kv=0.38 kw = 0.3865911002099296 pf=0.92 status=variable vmaxpu=1.5 vminpu=0.92 daily="COM_1_SA"
 
New "Load.BT_6671_66_M1" bus1="UC6671.1.4" phases=1 conn=delta model=2 kv=0.22 kw = 0.07046844896920464 pf=0.92 status=variable vmaxpu=1.5 vminpu=0.92 daily="RES_2_SA" 
New "Load.BT_6671_66_M2" bus1="UC6671.1.4" phases=1 conn=delta model=3 kv=0.22 kw = 0.07046844896920464 pf=0.92 status=variable vmaxpu=1.5 vminpu=0.92 daily="RES_2_SA"
 
New "Load.BT_9626_67_M1" bus1="UC9626.3.4" phases=1 conn=delta model=2 kv=0.22 kw = 0.22101468085795994 pf=0.92 status=variable vmaxpu=1.5 vminpu=0.92 daily="RES_2_SA" 
New "Load.BT_9626_67_M2" bus1="UC9626.3.4" phases=1 conn=delta model=3 kv=0.22 kw = 0.22101468085795994 pf=0.92 status=variable vmaxpu=1.5 vminpu=0.92 daily="RES_2_SA"
 
New "Load.BT_13002_68_M1" bus1="UC13002.3.4" phases=1 conn=delta model=2 kv=0.22 kw = 0.0305415006402855 pf=0.92 status=variable vmaxpu=1.5 vminpu=0.92 daily="COM_1_SA" 
New "Load.BT_13002_68_M2" bus1="UC13002.3.4" phases=1 conn=delta model=3 kv=0.22 kw = 0.0305415006402855 pf=0.92 status=variable vmaxpu=1.5 vminpu=0.92 daily="COM_1_SA"
 
New "Load.BT_13331_69_M1" bus1="UC13331.1.4" phases=1 conn=delta model=2 kv=0.22 kw = 0.0 pf=0.92 status=variable vmaxpu=1.5 vminpu=0.92 daily="RES_2_SA" 
New "Load.BT_13331_69_M2" bus1="UC13331.1.4" phases=1 conn=delta model=3 kv=0.22 kw = 0.0 pf=0.92 status=variable vmaxpu=1.5 vminpu=0.92 daily="RES_2_SA"
 
New "Load.BT_14890_70_M1" bus1="UC14890.1.2.3.4" phases=3 conn=delta model=2 kv=0.38 kw = 0.16656178847266545 pf=0.92 status=variable vmaxpu=1.5 vminpu=0.92 daily="RES_2_SA" 
New "Load.BT_14890_70_M2" bus1="UC14890.1.2.3.4" phases=3 conn=delta model=3 kv=0.38 kw = 0.16656178847266545 pf=0.92 status=variable vmaxpu=1.5 vminpu=0.92 daily="RES_2_SA"
 
New "Load.BT_14890_71_M1" bus1="UC14890.1.2.3.4" phases=3 conn=delta model=2 kv=0.38 kw = 0.22421779217474197 pf=0.92 status=variable vmaxpu=1.5 vminpu=0.92 daily="RES_2_SA" 
New "Load.BT_14890_71_M2" bus1="UC14890.1.2.3.4" phases=3 conn=delta model=3 kv=0.38 kw = 0.22421779217474197 pf=0.92 status=variable vmaxpu=1.5 vminpu=0.92 daily="RES_2_SA"
 
New "Load.BT_15137_72_M1" bus1="UC15137.1.2.3.4" phases=3 conn=delta model=2 kv=0.38 kw = 1.9932347786291589 pf=0.92 status=variable vmaxpu=1.5 vminpu=0.92 daily="IND_1_SA" 
New "Load.BT_15137_72_M2" bus1="UC15137.1.2.3.4" phases=3 conn=delta model=3 kv=0.38 kw = 1.9932347786291589 pf=0.92 status=variable vmaxpu=1.5 vminpu=0.92 daily="IND_1_SA"
 
New "Load.BT_7113_73_M1" bus1="UC7113.1.4" phases=1 conn=delta model=2 kv=0.22 kw = 0.2386317931002611 pf=0.92 status=variable vmaxpu=1.5 vminpu=0.92 daily="RES_2_SA" 
New "Load.BT_7113_73_M2" bus1="UC7113.1.4" phases=1 conn=delta model=3 kv=0.22 kw = 0.2386317931002611 pf=0.92 status=variable vmaxpu=1.5 vminpu=0.92 daily="RES_2_SA"
 
New "Load.BT_9718_74_M1" bus1="UC9718.1.4" phases=1 conn=delta model=2 kv=0.22 kw = 0.05285133672690346 pf=0.92 status=variable vmaxpu=1.5 vminpu=0.92 daily="RES_2_SA" 
New "Load.BT_9718_74_M2" bus1="UC9718.1.4" phases=1 conn=delta model=3 kv=0.22 kw = 0.05285133672690346 pf=0.92 status=variable vmaxpu=1.5 vminpu=0.92 daily="RES_2_SA"
 
New "Load.BT_10594_76_M1" bus1="UC10594.3.1.4" phases=2 conn=delta model=2 kv=0.38 kw = 0.10767103943169092 pf=0.92 status=variable vmaxpu=1.5 vminpu=0.92 daily="RES_11_SA" 
New "Load.BT_10594_76_M2" bus1="UC10594.3.1.4" phases=2 conn=delta model=3 kv=0.38 kw = 0.10767103943169092 pf=0.92 status=variable vmaxpu=1.5 vminpu=0.92 daily="RES_11_SA"
 
New "Load.BT_15149_77_M1" bus1="UC15149.1.2.4" phases=2 conn=delta model=2 kv=0.38 kw = 0.17777267808140254 pf=0.92 status=variable vmaxpu=1.5 vminpu=0.92 daily="RES_2_SA" 
New "Load.BT_15149_77_M2" bus1="UC15149.1.2.4" phases=2 conn=delta model=3 kv=0.38 kw = 0.17777267808140254 pf=0.92 status=variable vmaxpu=1.5 vminpu=0.92 daily="RES_2_SA"
 
New "Load.BT_13667_78_M1" bus1="UC13667.1.2.3.4" phases=3 conn=delta model=2 kv=0.38 kw = 0.42748815266591794 pf=0.92 status=variable vmaxpu=1.5 vminpu=0.92 daily="RES_7_SA" 
New "Load.BT_13667_78_M2" bus1="UC13667.1.2.3.4" phases=3 conn=delta model=3 kv=0.38 kw = 0.42748815266591794 pf=0.92 status=variable vmaxpu=1.5 vminpu=0.92 daily="RES_7_SA"
 
New "Load.BT_15154_79_M1" bus1="UC15154.3.4" phases=1 conn=delta model=2 kv=0.22 kw = 0.4527931405636829 pf=0.92 status=variable vmaxpu=1.5 vminpu=0.92 daily="RES_1_SA" 
New "Load.BT_15154_79_M2" bus1="UC15154.3.4" phases=1 conn=delta model=3 kv=0.22 kw = 0.4527931405636829 pf=0.92 status=variable vmaxpu=1.5 vminpu=0.92 daily="RES_1_SA"
 
New "Load.BT_15150_80_M1" bus1="UC15150.1.2.3.4" phases=3 conn=delta model=2 kv=0.38 kw = 0.36195157879636924 pf=0.92 status=variable vmaxpu=1.5 vminpu=0.92 daily="RES_2_SA" 
New "Load.BT_15150_80_M2" bus1="UC15150.1.2.3.4" phases=3 conn=delta model=3 kv=0.38 kw = 0.36195157879636924 pf=0.92 status=variable vmaxpu=1.5 vminpu=0.92 daily="RES_2_SA"
 
New "Load.BT_14783_82_M1" bus1="UC14783.1.2.3.4" phases=3 conn=delta model=2 kv=0.38 kw = 0.36835780142993324 pf=0.92 status=variable vmaxpu=1.5 vminpu=0.92 daily="RES_2_SA" 
New "Load.BT_14783_82_M2" bus1="UC14783.1.2.3.4" phases=3 conn=delta model=3 kv=0.38 kw = 0.36835780142993324 pf=0.92 status=variable vmaxpu=1.5 vminpu=0.92 daily="RES_2_SA"
 
New "Load.BT_10551_83_M1" bus1="UC10551.2.4" phases=1 conn=delta model=2 kv=0.22 kw = 0.2781501851985348 pf=0.92 status=variable vmaxpu=1.5 vminpu=0.92 daily="RES_11_SA" 
New "Load.BT_10551_83_M2" bus1="UC10551.2.4" phases=1 conn=delta model=3 kv=0.22 kw = 0.2781501851985348 pf=0.92 status=variable vmaxpu=1.5 vminpu=0.92 daily="RES_11_SA"
 
New "Load.BT_15130_85_M1" bus1="UC15130.3.4" phases=1 conn=delta model=2 kv=0.22 kw = 0.01687819772226304 pf=0.92 status=variable vmaxpu=1.5 vminpu=0.92 daily="COM_1_SA" 
New "Load.BT_15130_85_M2" bus1="UC15130.3.4" phases=1 conn=delta model=3 kv=0.22 kw = 0.01687819772226304 pf=0.92 status=variable vmaxpu=1.5 vminpu=0.92 daily="COM_1_SA"
 
New "Load.BT_11345_91_M1" bus1="UC11345.3.4" phases=1 conn=delta model=2 kv=0.22 kw = 0.3206942406046736 pf=0.92 status=variable vmaxpu=1.5 vminpu=0.92 daily="RES_8_SA" 
New "Load.BT_11345_91_M2" bus1="UC11345.3.4" phases=1 conn=delta model=3 kv=0.22 kw = 0.3206942406046736 pf=0.92 status=variable vmaxpu=1.5 vminpu=0.92 daily="RES_8_SA"
 
New "Load.BT_1871_94_M1" bus1="UC1871.2.4" phases=1 conn=delta model=2 kv=0.22 kw = 0.5715670356152728 pf=0.92 status=variable vmaxpu=1.5 vminpu=0.92 daily="RES_13_SA" 
New "Load.BT_1871_94_M2" bus1="UC1871.2.4" phases=1 conn=delta model=3 kv=0.22 kw = 0.5715670356152728 pf=0.92 status=variable vmaxpu=1.5 vminpu=0.92 daily="RES_13_SA"
 
New "Load.BT_15581_97_M1" bus1="UC15581.1.2.3.4" phases=3 conn=delta model=2 kv=0.38 kw = 0.0 pf=0.92 status=variable vmaxpu=1.5 vminpu=0.92 daily="RES_3_SA" 
New "Load.BT_15581_97_M2" bus1="UC15581.1.2.3.4" phases=3 conn=delta model=3 kv=0.38 kw = 0.0 pf=0.92 status=variable vmaxpu=1.5 vminpu=0.92 daily="RES_3_SA"
 
New "Load.BT_14653_98_M1" bus1="UC14653.1.2.3.4" phases=3 conn=delta model=2 kv=0.38 kw = 0.0 pf=0.92 status=variable vmaxpu=1.5 vminpu=0.92 daily="RES_3_SA" 
New "Load.BT_14653_98_M2" bus1="UC14653.1.2.3.4" phases=3 conn=delta model=3 kv=0.38 kw = 0.0 pf=0.92 status=variable vmaxpu=1.5 vminpu=0.92 daily="RES_3_SA"
 
New "Load.BT_8216_99_M1" bus1="UC8216.3.4" phases=1 conn=delta model=2 kv=0.22 kw = 0.0 pf=0.92 status=variable vmaxpu=1.5 vminpu=0.92 daily="RES_3_SA" 
New "Load.BT_8216_99_M2" bus1="UC8216.3.4" phases=1 conn=delta model=3 kv=0.22 kw = 0.0 pf=0.92 status=variable vmaxpu=1.5 vminpu=0.92 daily="RES_3_SA"
 
New "Load.BT_16125_100_M1" bus1="UC16125.1.2.3.4" phases=3 conn=delta model=2 kv=0.38 kw = 0.0 pf=0.92 status=variable vmaxpu=1.5 vminpu=0.92 daily="RES_7_SA" 
New "Load.BT_16125_100_M2" bus1="UC16125.1.2.3.4" phases=3 conn=delta model=3 kv=0.38 kw = 0.0 pf=0.92 status=variable vmaxpu=1.5 vminpu=0.92 daily="RES_7_SA"
 
New "Load.BT_16120_101_M1" bus1="UC16120.1.2.3.4" phases=3 conn=delta model=2 kv=0.38 kw = 0.0 pf=0.92 status=variable vmaxpu=1.5 vminpu=0.92 daily="RES_3_SA" 
New "Load.BT_16120_101_M2" bus1="UC16120.1.2.3.4" phases=3 conn=delta model=3 kv=0.38 kw = 0.0 pf=0.92 status=variable vmaxpu=1.5 vminpu=0.92 daily="RES_3_SA"
 
New "Load.BT_16117_104_M1" bus1="UC16117.1.4" phases=1 conn=delta model=2 kv=0.22 kw = 0.0 pf=0.92 status=variable vmaxpu=1.5 vminpu=0.92 daily="RES_3_SA" 
New "Load.BT_16117_104_M2" bus1="UC16117.1.4" phases=1 conn=delta model=3 kv=0.22 kw = 0.0 pf=0.92 status=variable vmaxpu=1.5 vminpu=0.92 daily="RES_3_SA"
 
New "Load.BT_2901_106_M1" bus1="UC2901.2.4" phases=1 conn=delta model=2 kv=0.22 kw = 0.0 pf=0.92 status=variable vmaxpu=1.5 vminpu=0.92 daily="RES_3_SA" 
New "Load.BT_2901_106_M2" bus1="UC2901.2.4" phases=1 conn=delta model=3 kv=0.22 kw = 0.0 pf=0.92 status=variable vmaxpu=1.5 vminpu=0.92 daily="RES_3_SA"
 
New "Load.BT_8431_107_M1" bus1="UC8431.2.4" phases=1 conn=delta model=2 kv=0.22 kw = 0.0 pf=0.92 status=variable vmaxpu=1.5 vminpu=0.92 daily="RES_3_SA" 
New "Load.BT_8431_107_M2" bus1="UC8431.2.4" phases=1 conn=delta model=3 kv=0.22 kw = 0.0 pf=0.92 status=variable vmaxpu=1.5 vminpu=0.92 daily="RES_3_SA"
 
New "Load.BT_16128_108_M1" bus1="UC16128.1.4" phases=1 conn=delta model=2 kv=0.22 kw = 0.0 pf=0.92 status=variable vmaxpu=1.5 vminpu=0.92 daily="RES_7_SA" 
New "Load.BT_16128_108_M2" bus1="UC16128.1.4" phases=1 conn=delta model=3 kv=0.22 kw = 0.0 pf=0.92 status=variable vmaxpu=1.5 vminpu=0.92 daily="RES_7_SA"
 
New "Load.BT_15685_113_M1" bus1="UC15685.1.2.3.4" phases=3 conn=delta model=2 kv=0.38 kw = 0.13582930547916444 pf=0.92 status=variable vmaxpu=1.5 vminpu=0.92 daily="COM_1_SA" 
New "Load.BT_15685_113_M2" bus1="UC15685.1.2.3.4" phases=3 conn=delta model=3 kv=0.38 kw = 0.13582930547916444 pf=0.92 status=variable vmaxpu=1.5 vminpu=0.92 daily="COM_1_SA"
 
New "Load.BT_10153_115_M1" bus1="UC10153.2.4" phases=1 conn=delta model=2 kv=0.22 kw = 0.16656178847266545 pf=0.92 status=variable vmaxpu=1.5 vminpu=0.92 daily="RES_2_SA" 
New "Load.BT_10153_115_M2" bus1="UC10153.2.4" phases=1 conn=delta model=3 kv=0.22 kw = 0.16656178847266545 pf=0.92 status=variable vmaxpu=1.5 vminpu=0.92 daily="RES_2_SA"
 
New "Load.BT_15838_116_M1" bus1="UC15838.2.4" phases=1 conn=delta model=2 kv=0.22 kw = 0.003203111316782028 pf=0.92 status=variable vmaxpu=1.5 vminpu=0.92 daily="RES_2_SA" 
New "Load.BT_15838_116_M2" bus1="UC15838.2.4" phases=1 conn=delta model=3 kv=0.22 kw = 0.003203111316782028 pf=0.92 status=variable vmaxpu=1.5 vminpu=0.92 daily="RES_2_SA"
 
New "Load.BT_15839_117_M1" bus1="UC15839.2.3.4" phases=2 conn=delta model=2 kv=0.38 kw = 0.0 pf=0.92 status=variable vmaxpu=1.5 vminpu=0.92 daily="RES_9_SA" 
New "Load.BT_15839_117_M2" bus1="UC15839.2.3.4" phases=2 conn=delta model=3 kv=0.38 kw = 0.0 pf=0.92 status=variable vmaxpu=1.5 vminpu=0.92 daily="RES_9_SA"
 
New "Load.BT_14029_118_M1" bus1="UC14029.1.4" phases=1 conn=delta model=2 kv=0.22 kw = 0.2962877968023376 pf=0.92 status=variable vmaxpu=1.5 vminpu=0.92 daily="RES_2_SA" 
New "Load.BT_14029_118_M2" bus1="UC14029.1.4" phases=1 conn=delta model=3 kv=0.22 kw = 0.2962877968023376 pf=0.92 status=variable vmaxpu=1.5 vminpu=0.92 daily="RES_2_SA"
 
New "Load.BT_15841_120_M1" bus1="UC15841.2.4" phases=1 conn=delta model=2 kv=0.22 kw = 0.0017926145497319007 pf=0.92 status=variable vmaxpu=1.5 vminpu=0.92 daily="RES_4_SA" 
New "Load.BT_15841_120_M2" bus1="UC15841.2.4" phases=1 conn=delta model=3 kv=0.22 kw = 0.0017926145497319007 pf=0.92 status=variable vmaxpu=1.5 vminpu=0.92 daily="RES_4_SA"
 
New "Load.BT_358_126_M1" bus1="UC358.3.1.4" phases=2 conn=delta model=2 kv=0.38 kw = 0.2957703219901333 pf=0.92 status=variable vmaxpu=1.5 vminpu=0.92 daily="COM_1_SA" 
New "Load.BT_358_126_M2" bus1="UC358.3.1.4" phases=2 conn=delta model=3 kv=0.38 kw = 0.2957703219901333 pf=0.92 status=variable vmaxpu=1.5 vminpu=0.92 daily="COM_1_SA"
 
New "Load.BT_6892_128_M1" bus1="UC6892.2.4" phases=1 conn=delta model=2 kv=0.22 kw = 0.09929645082024288 pf=0.92 status=variable vmaxpu=1.5 vminpu=0.92 daily="RES_2_SA" 
New "Load.BT_6892_128_M2" bus1="UC6892.2.4" phases=1 conn=delta model=3 kv=0.22 kw = 0.09929645082024288 pf=0.92 status=variable vmaxpu=1.5 vminpu=0.92 daily="RES_2_SA"
 
New "Load.BT_14783_129_M1" bus1="UC14783.1.2.3.4" phases=3 conn=delta model=2 kv=0.38 kw = 0.27546757324325444 pf=0.92 status=variable vmaxpu=1.5 vminpu=0.92 daily="RES_2_SA" 
New "Load.BT_14783_129_M2" bus1="UC14783.1.2.3.4" phases=3 conn=delta model=3 kv=0.38 kw = 0.27546757324325444 pf=0.92 status=variable vmaxpu=1.5 vminpu=0.92 daily="RES_2_SA"
 
New "Load.BT_15490_130_M1" bus1="UC15490.2.4" phases=1 conn=delta model=2 kv=0.22 kw = 0.22742090349152397 pf=0.92 status=variable vmaxpu=1.5 vminpu=0.92 daily="RES_2_SA" 
New "Load.BT_15490_130_M2" bus1="UC15490.2.4" phases=1 conn=delta model=3 kv=0.22 kw = 0.22742090349152397 pf=0.92 status=variable vmaxpu=1.5 vminpu=0.92 daily="RES_2_SA"
 
New "Load.BT_15492_131_M1" bus1="UC15492.1.2.3.4" phases=3 conn=delta model=2 kv=0.38 kw = 0.05124978106851245 pf=0.92 status=variable vmaxpu=1.5 vminpu=0.92 daily="RES_2_SA" 
New "Load.BT_15492_131_M2" bus1="UC15492.1.2.3.4" phases=3 conn=delta model=3 kv=0.38 kw = 0.05124978106851245 pf=0.92 status=variable vmaxpu=1.5 vminpu=0.92 daily="RES_2_SA"
 
New "Load.BT_15495_133_M1" bus1="UC15495.1.2.3.4" phases=3 conn=delta model=2 kv=0.38 kw = 0.11814738405584127 pf=0.92 status=variable vmaxpu=1.5 vminpu=0.92 daily="COM_1_SA" 
New "Load.BT_15495_133_M2" bus1="UC15495.1.2.3.4" phases=3 conn=delta model=3 kv=0.38 kw = 0.11814738405584127 pf=0.92 status=variable vmaxpu=1.5 vminpu=0.92 daily="COM_1_SA"
 
New "Load.BT_15493_134_M1" bus1="UC15493.2.4" phases=1 conn=delta model=2 kv=0.22 kw = 0.17617112242301153 pf=0.92 status=variable vmaxpu=1.5 vminpu=0.92 daily="RES_2_SA" 
New "Load.BT_15493_134_M2" bus1="UC15493.2.4" phases=1 conn=delta model=3 kv=0.22 kw = 0.17617112242301153 pf=0.92 status=variable vmaxpu=1.5 vminpu=0.92 daily="RES_2_SA"
 
New "Load.BT_15496_135_M1" bus1="UC15496.3.4" phases=1 conn=delta model=2 kv=0.38 kw = 0.006406222633564056 pf=0.92 status=variable vmaxpu=1.5 vminpu=0.92 daily="RES_2_SA" 
New "Load.BT_15496_135_M2" bus1="UC15496.3.4" phases=1 conn=delta model=3 kv=0.38 kw = 0.006406222633564056 pf=0.92 status=variable vmaxpu=1.5 vminpu=0.92 daily="RES_2_SA"
 
New "Load.BT_14400_138_M1" bus1="UC14400.1.4" phases=1 conn=delta model=2 kv=0.22 kw = 0.11210889608737098 pf=0.92 status=variable vmaxpu=1.5 vminpu=0.92 daily="RES_2_SA" 
New "Load.BT_14400_138_M2" bus1="UC14400.1.4" phases=1 conn=delta model=3 kv=0.22 kw = 0.11210889608737098 pf=0.92 status=variable vmaxpu=1.5 vminpu=0.92 daily="RES_2_SA"
 
New "Load.BT_6077_139_M1" bus1="UC6077.1.4" phases=1 conn=delta model=2 kv=0.22 kw = 0.2066006799324408 pf=0.92 status=variable vmaxpu=1.5 vminpu=0.92 daily="RES_2_SA" 
New "Load.BT_6077_139_M2" bus1="UC6077.1.4" phases=1 conn=delta model=3 kv=0.22 kw = 0.2066006799324408 pf=0.92 status=variable vmaxpu=1.5 vminpu=0.92 daily="RES_2_SA"
 
New "Load.BT_7595_141_M1" bus1="UC7595.2.3.4" phases=2 conn=delta model=2 kv=0.38 kw = 0.7274013068922688 pf=0.92 status=variable vmaxpu=1.5 vminpu=0.92 daily="RES_7_SA" 
New "Load.BT_7595_141_M2" bus1="UC7595.2.3.4" phases=2 conn=delta model=3 kv=0.38 kw = 0.7274013068922688 pf=0.92 status=variable vmaxpu=1.5 vminpu=0.92 daily="RES_7_SA"
 
New "Load.BT_10551_142_M1" bus1="UC10551.3.4" phases=1 conn=delta model=2 kv=0.22 kw = 0.1458045325637481 pf=0.92 status=variable vmaxpu=1.5 vminpu=0.92 daily="RES_11_SA" 
New "Load.BT_10551_142_M2" bus1="UC10551.3.4" phases=1 conn=delta model=3 kv=0.22 kw = 0.1458045325637481 pf=0.92 status=variable vmaxpu=1.5 vminpu=0.92 daily="RES_11_SA"
 
New "Load.BT_8865_145_M1" bus1="UC8865.3.4" phases=1 conn=delta model=2 kv=0.22 kw = 0.7092713049219226 pf=0.92 status=variable vmaxpu=1.5 vminpu=0.92 daily="RES_13_SA" 
New "Load.BT_8865_145_M2" bus1="UC8865.3.4" phases=1 conn=delta model=3 kv=0.22 kw = 0.7092713049219226 pf=0.92 status=variable vmaxpu=1.5 vminpu=0.92 daily="RES_13_SA"
 
New "Load.BT_5847_147_M1" bus1="UC5847.2.4" phases=1 conn=delta model=2 kv=0.22 kw = 0.2642566836345173 pf=0.92 status=variable vmaxpu=1.5 vminpu=0.92 daily="RES_2_SA" 
New "Load.BT_5847_147_M2" bus1="UC5847.2.4" phases=1 conn=delta model=3 kv=0.22 kw = 0.2642566836345173 pf=0.92 status=variable vmaxpu=1.5 vminpu=0.92 daily="RES_2_SA"
 
New "Load.BT_8287_148_M1" bus1="UC8287.2.4" phases=1 conn=delta model=2 kv=0.22 kw = 0.5031310368636507 pf=0.92 status=variable vmaxpu=1.5 vminpu=0.92 daily="COM_1_SA" 