New "Circuit.1_TAP2_1" basekv=13.8 pu=1.0499999523162842 bus1="1_TAP2_1" r1=0.0 x1=0.0001
