New "Loadshape.RUR_11_SA" 24 1 mult=(0.158377, 0.106944, 0.159542, 0.191853, 0.098575, 0.138037, 0.268976, 0.908576, 0.438106, 0.365168, 0.540336, 0.224111, 0.285714, 0.157159, 0.240267, 0.505641, 0.716669, 1.0, 0.506859, 0.241432, 0.694581, 0.182902, 0.151226, 0.190635)
New "Loadshape.RUR_11_DO" 24 1 mult=(0.216538, 0.197203, 0.436358, 0.198059, 0.242295, 0.163385, 0.169877, 0.314783, 1.0, 0.698844, 0.891267, 0.466966, 0.841324, 0.460474, 0.254352, 0.263271, 0.28339, 0.202055, 0.689141, 0.553082, 0.94121, 0.223816, 0.230237, 0.173873)
New "Loadshape.COM_1_DU" 24 1 mult=(0.56261, 0.471036, 0.474069, 0.606412, 0.633713, 0.681072, 0.753468, 0.833719, 0.893536, 0.911574, 1.0, 0.948766, 0.899378, 0.936752, 0.985565, 0.898112, 0.961825, 0.944383, 0.910382, 0.885659, 0.863515, 0.855863, 0.86398, 0.75773)
New "Loadshape.COM_1_SA" 24 1 mult=(0.646495, 0.517403, 0.493186, 0.644605, 0.68056, 0.704333, 0.796024, 0.895938, 0.953049, 0.988306, 0.986182, 0.989069, 0.903781, 0.969402, 0.966759, 0.94662, 1.0, 0.974694, 0.985901, 0.919673, 0.891929, 0.88947, 0.893473, 0.792872)
New "Loadshape.COM_1_DO" 24 1 mult=(0.717937, 0.571885, 0.532504, 0.69704, 0.713104, 0.752133, 0.913022, 0.908148, 0.879302, 0.879487, 0.982458, 0.992289, 0.97669, 0.970576, 0.954125, 0.916418, 0.974175, 0.982333, 0.984263, 1.0, 0.992129, 0.91422, 0.959773, 0.768454)
New "Loadshape.COM_2_DU" 24 1 mult=(0.064976, 0.060229, 0.073604, 0.054363, 0.061179, 0.064631, 0.151695, 0.078867, 0.168349, 0.151005, 0.154974, 0.198033, 0.274053, 0.141772, 0.16602, 0.186729, 0.174217, 0.139788, 0.392615, 0.794375, 1.0, 0.80378, 0.882302, 0.603676)
New "Loadshape.COM_2_SA" 24 1 mult=(0.309102, 0.145755, 0.063463, 0.062664, 0.063827, 0.086798, 0.207983, 0.1459, 0.078147, 0.092323, 0.086507, 0.085344, 0.097412, 0.210817, 0.166763, 0.148227, 0.150844, 0.121984, 0.262576, 0.681157, 1.0, 0.798706, 0.516356, 0.336871)
New "Loadshape.RUR_9_DU" 24 1 mult=(0.144446, 0.090492, 0.083738, 0.076997, 0.132993, 0.103348, 0.515531, 1.0, 0.498436, 0.395394, 0.393657, 0.226474, 0.349126, 0.100374, 0.078887, 0.096455, 0.507846, 0.542661, 0.502036, 0.405734, 0.045628, 0.032925, 0.021473, 0.020389)
New "Loadshape.RUR_9_SA" 24 1 mult=(0.056686, 0.053585, 0.057128, 0.049268, 0.062446, 0.070198, 0.256447, 1.0, 0.49895, 0.585093, 0.232976, 0.116601, 0.161551, 0.202744, 0.245486, 0.236743, 0.604914, 0.891926, 0.422983, 0.181264, 0.141289, 0.11195, 0.062112, 0.07164)
New "Loadshape.RUR_9_DO" 24 1 mult=(0.065943, 0.079802, 0.066611, 0.071191, 0.068364, 0.066754, 0.337551, 0.975777, 0.328797, 0.439299, 0.231224, 0.120997, 0.262317, 0.139162, 0.293804, 0.317359, 0.639168, 1.0, 0.482772, 0.231355, 0.220991, 0.116274, 0.118707, 0.11668)
New "Loadshape.RUR_10_DU" 24 1 mult=(0.139661, 0.167644, 0.130552, 0.110372, 0.108854, 0.1338, 0.19995, 0.271097, 0.536756, 0.934292, 0.634578, 0.655603, 0.416178, 0.246594, 0.1338, 0.130975, 0.161993, 0.363481, 1.0, 0.549555, 0.16676, 0.055734, 0.035343, 0.02927)
New "Loadshape.RUR_10_SA" 24 1 mult=(0.028404, 0.033238, 0.028075, 0.023555, 0.013873, 0.020981, 0.014846, 0.028561, 0.276473, 0.414302, 0.245638, 0.686241, 0.269522, 0.07214, 0.04405, 0.046153, 0.030335, 1.0, 0.771138, 0.603132, 0.449642, 0.150586, 0.155749, 0.163172)
New "Loadshape.RUR_10_DO" 24 1 mult=(0.192471, 0.167126, 0.176455, 0.168992, 0.176818, 0.18055, 0.181111, 0.181673, 0.475489, 0.835284, 0.708033, 1.0, 0.25135, 0.228251, 0.221729, 0.20142, 0.222092, 0.687344, 0.933856, 0.571452, 0.259358, 0.14439, 0.119607, 0.126872)
New "Loadshape.RUR_11_DU" 24 1 mult=(0.107663, 0.124344, 0.085546, 0.092647, 0.099305, 0.1185, 0.172757, 0.338893, 0.368518, 1.0, 0.492492, 0.159405, 0.238701, 0.529218, 0.235372, 0.264591, 0.264184, 0.270027, 0.628967, 0.453658, 0.295473, 0.098491, 0.092647, 0.092204)
New "Loadshape.RUR_6_DO" 24 1 mult=(0.409872, 0.202676, 0.233944, 0.193311, 0.14681, 0.171231, 0.167393, 0.200335, 0.205018, 0.35485, 0.620239, 0.456359, 0.401174, 0.617053, 0.268057, 0.744984, 0.258024, 0.538292, 1.0, 0.60468, 0.469058, 0.675247, 0.559868, 0.339468)
New "Loadshape.RUR_7_DU" 24 1 mult=(0.066225, 0.065136, 0.065704, 0.063006, 0.085964, 0.109491, 0.135148, 0.218462, 0.100923, 0.057657, 0.13245, 0.11484, 0.453491, 0.262249, 0.12071, 0.051787, 0.169846, 1.0, 0.258509, 0.133538, 0.103053, 0.103053, 0.099882, 0.071006)
New "Loadshape.RUR_7_SA" 24 1 mult=(0.072223, 0.069417, 0.096642, 0.093295, 0.064986, 0.063312, 0.119437, 0.26664, 0.115547, 0.038302, 0.123868, 0.021662, 0.103289, 0.505563, 0.268856, 0.02053, 0.677777, 1.0, 0.650551, 0.118846, 0.082759, 0.079411, 0.07887, 0.077196)
New "Loadshape.RUR_7_DO" 24 1 mult=(0.038135, 0.043403, 0.043403, 0.039865, 0.042538, 0.042538, 0.172118, 0.35839, 0.04875, 0.204906, 0.108193, 0.148136, 0.476411, 0.825208, 0.165907, 0.172983, 0.177386, 0.416103, 1.0, 0.29014, 0.18006, 0.172118, 0.158751, 0.13131)
New "Loadshape.RUR_8_DU" 24 1 mult=(0.286548, 0.299341, 0.292944, 0.174036, 0.246284, 0.501035, 0.424459, 0.227093, 0.280151, 0.320414, 0.367262, 0.426717, 0.267357, 0.25889, 0.433114, 0.503104, 0.471308, 0.248354, 0.44158, 0.454186, 0.447977, 0.571025, 1.0, 0.295014)
New "Loadshape.RUR_8_SA" 24 1 mult=(0.170277, 0.309571, 0.231062, 0.239989, 0.176185, 0.265065, 0.429565, 0.356965, 0.63844, 0.232506, 0.269529, 0.393987, 0.432585, 0.351057, 0.688854, 0.413286, 0.339241, 0.207299, 0.68439, 1.0, 0.410267, 0.277012, 0.228043, 0.278456)
New "Loadshape.RUR_8_DO" 24 1 mult=(0.250333, 0.247078, 0.231987, 0.166889, 0.275337, 0.303743, 0.47581, 0.176949, 0.372244, 0.395621, 0.302116, 0.323864, 0.23539, 0.378902, 0.350496, 0.217044, 0.298713, 0.367214, 0.429058, 1.0, 0.459092, 0.323864, 0.300488, 0.233614)
New "Loadshape.RUR_4_SA" 24 1 mult=(0.226462, 0.223701, 0.220939, 0.220939, 0.215164, 0.198092, 0.260608, 0.266131, 0.24931, 0.243535, 0.24931, 0.257595, 0.393673, 0.266131, 0.254833, 0.285965, 0.450414, 0.285965, 1.0, 0.810193, 0.642983, 0.424805, 0.246297, 0.317098)
New "Loadshape.RUR_4_DO" 24 1 mult=(0.196137, 0.147639, 0.176609, 0.176609, 0.196137, 0.154936, 0.196137, 0.21309, 0.261373, 1.0, 0.26867, 0.326824, 0.382403, 0.435837, 0.477039, 0.351073, 0.234764, 0.312232, 0.556867, 0.510944, 0.578755, 0.392275, 0.200858, 0.198498)
New "Loadshape.RUR_5_DU" 24 1 mult=(0.041642, 0.032142, 0.032142, 0.032142, 0.038106, 0.042276, 0.558664, 0.035098, 0.238824, 0.114899, 0.111944, 0.089302, 0.050615, 0.04824, 0.082177, 0.080963, 0.091096, 0.079168, 1.0, 0.944002, 0.069087, 0.24236, 0.137542, 0.045231)
New "Loadshape.RUR_5_SA" 24 1 mult=(0.241546, 0.076636, 0.063212, 0.061342, 0.061342, 0.065166, 1.0, 0.295242, 0.212829, 0.261682, 0.305777, 0.028717, 0.196517, 0.364316, 0.194562, 0.063212, 0.04503, 0.042141, 0.068989, 0.084367, 0.418946, 0.101614, 0.064231, 0.126508)
New "Loadshape.RUR_5_DO" 24 1 mult=(0.029117, 0.05025, 0.015152, 0.061238, 0.015152, 0.015152, 0.014862, 0.014545, 0.014862, 0.090092, 1.0, 0.314598, 0.109723, 0.096627, 0.036258, 0.293491, 0.010988, 0.117154, 0.405007, 0.094835, 0.056495, 0.030329, 0.03805, 0.038946)
New "Loadshape.RUR_6_DU" 24 1 mult=(0.151728, 0.118715, 0.116147, 0.13865, 0.151608, 0.121044, 0.168727, 0.223745, 0.159431, 0.179973, 0.154545, 0.223008, 0.317638, 0.217147, 0.168109, 0.17019, 0.217504, 0.183885, 1.0, 0.640172, 0.352362, 0.255415, 0.345645, 0.270572)
New "Loadshape.RUR_6_SA" 24 1 mult=(0.195536, 0.175297, 0.191807, 0.165744, 0.14374, 0.137415, 0.161053, 0.289087, 0.238597, 0.199093, 0.16834, 0.591787, 0.343637, 0.325033, 0.424738, 1.0, 0.352387, 0.909031, 0.665916, 0.460999, 0.410494, 0.520081, 0.362743, 0.227093)
New "Loadshape.RUR_2_DU" 24 1 mult=(0.032998, 0.099204, 0.054368, 0.060235, 0.054368, 0.082652, 0.04955, 0.380578, 0.264718, 0.284831, 0.627697, 0.244605, 0.581605, 0.166667, 0.093338, 0.217473, 0.433794, 0.306097, 1.0, 0.634716, 0.642992, 0.400691, 0.056673, 0.085062)
New "Loadshape.RUR_2_SA" 24 1 mult=(0.624769, 0.45841, 0.916821, 0.54159, 0.186691, 0.896488, 0.478743, 0.979667, 0.186691, 0.478743, 0.979667, 0.478743, 0.624769, 0.478743, 0.561922, 0.916821, 0.478743, 0.979667, 0.45841, 0.750462, 0.35305, 1.0, 0.478743, 0.979667)
New "Loadshape.RUR_2_DO" 24 1 mult=(0.125786, 0.119354, 0.075758, 0.119354, 0.09191, 0.117639, 0.083762, 0.816181, 0.469268, 0.472556, 0.117639, 0.116066, 0.128931, 0.383791, 0.166095, 0.159663, 0.187107, 0.206404, 0.382218, 1.0, 0.324185, 0.124071, 0.07733, 0.120926)
New "Loadshape.RUR_3_DU" 24 1 mult=(0.169827, 0.168443, 0.174583, 0.166396, 0.165071, 0.23364, 0.437481, 0.657637, 1.0, 0.186082, 0.185419, 0.224851, 0.21263, 0.226898, 0.220757, 0.229607, 0.217386, 0.951779, 0.40419, 0.632472, 0.5149, 0.288002, 0.214617, 0.167118)
New "Loadshape.RUR_3_SA" 24 1 mult=(0.456145, 0.444502, 0.433571, 0.4489, 0.437193, 0.267141, 0.175162, 0.313842, 1.0, 0.283182, 0.170052, 0.255433, 0.246701, 0.164942, 0.182471, 0.180272, 0.306533, 0.799288, 0.705821, 0.43868, 0.247413, 0.240815, 0.205045, 0.17956)
New "Loadshape.RUR_3_DO" 24 1 mult=(0.106528, 0.107855, 0.10567, 0.099504, 0.13517, 0.119327, 0.09728, 0.273423, 0.488781, 0.384399, 0.429781, 0.231592, 0.106997, 0.096422, 0.103016, 0.130761, 0.114489, 0.907988, 1.0, 0.418309, 0.335076, 0.25758, 0.162914, 0.125493)
New "Loadshape.RUR_4_DU" 24 1 mult=(0.39641, 0.375467, 0.455497, 0.464099, 0.430441, 0.354151, 0.371354, 0.438669, 0.430441, 0.55273, 0.366866, 0.39641, 0.814136, 0.425954, 0.425954, 0.569559, 0.413239, 0.548616, 0.582274, 0.911369, 1.0, 0.97457, 0.354151, 0.345924)
New "Loadshape.RES_12_DO" 24 1 mult=(0.063627, 0.152649, 0.117149, 0.033861, 0.165757, 0.037957, 0.127526, 0.10213, 1.0, 0.862643, 0.864282, 0.09503, 0.405243, 0.215456, 0.119607, 0.077827, 0.101857, 0.40142, 0.343255, 0.407154, 0.368651, 0.35254, 0.129164, 0.042327)
New "Loadshape.RES_13_DU" 24 1 mult=(0.205031, 0.119966, 0.088075, 0.081339, 0.076896, 0.155296, 0.102408, 0.269099, 0.646123, 0.452917, 0.374588, 0.380321, 0.224882, 0.283575, 0.247528, 0.180092, 0.213487, 0.277053, 0.35746, 0.491615, 0.91558, 1.0, 0.386269, 0.581267)
New "Loadshape.RES_13_SA" 24 1 mult=(0.163871, 0.204407, 0.201776, 0.179329, 0.182371, 0.183687, 0.177273, 0.224387, 0.139122, 0.216741, 0.338842, 0.351422, 0.523598, 0.256783, 0.210985, 0.250123, 0.371156, 0.354876, 0.328482, 0.328893, 0.360549, 0.208847, 1.0, 0.421888)
New "Loadshape.RES_13_DO" 24 1 mult=(0.180451, 0.18034, 0.122844, 0.144405, 0.126935, 0.140093, 0.139208, 0.148718, 0.336909, 0.46705, 0.22866, 0.516364, 0.358691, 0.25199, 0.397943, 0.420942, 0.41464, 0.38943, 0.771119, 0.570102, 0.920389, 1.0, 0.431557, 0.415303)
New "Loadshape.RUR_1_DU" 24 1 mult=(0.132302, 0.027958, 0.168997, 0.027958, 0.157514, 0.039191, 0.064653, 0.363205, 0.152022, 0.166001, 0.030954, 1.0, 0.428108, 0.354718, 0.027958, 0.191463, 0.030954, 0.301298, 0.543435, 0.785821, 0.343485, 0.315277, 0.090115, 0.185721)
New "Loadshape.RUR_1_SA" 24 1 mult=(0.078837, 0.129159, 0.031311, 0.135588, 0.065977, 0.034666, 0.151244, 0.283757, 0.340509, 0.176405, 0.514118, 0.227006, 0.908303, 0.037741, 0.084987, 0.123008, 0.031311, 0.252167, 0.542354, 1.0, 0.649706, 0.21135, 0.217501, 0.034666)
New "Loadshape.RUR_1_DO" 24 1 mult=(0.171005, 0.081713, 0.040857, 0.197035, 0.044481, 0.040857, 0.178254, 0.546293, 0.732455, 0.211862, 0.055684, 0.434926, 0.568699, 0.338056, 0.256343, 0.386491, 0.211862, 0.457331, 1.0, 0.825371, 0.394069, 0.237891, 0.137397, 0.092916)
New "Loadshape.RES_10_SA" 24 1 mult=(0.659455, 0.441135, 0.136977, 0.145968, 0.1551, 0.35347, 0.141332, 0.171537, 0.188536, 0.358387, 0.605788, 0.56884, 0.842933, 0.469093, 0.472605, 0.314976, 0.35923, 0.753161, 0.637539, 0.618713, 1.0, 0.282242, 0.336752, 0.487637)
New "Loadshape.RES_10_DO" 24 1 mult=(0.182751, 0.441176, 0.344209, 0.148591, 0.135876, 0.134498, 0.123162, 0.450674, 0.17019, 0.717218, 0.50383, 1.0, 0.570925, 0.521599, 0.658241, 0.278339, 0.412684, 0.404258, 0.524357, 0.303921, 0.307905, 0.306832, 0.286305, 0.212316)
New "Loadshape.RES_11_DU" 24 1 mult=(0.160648, 0.117713, 0.111187, 0.118989, 0.112905, 0.111335, 0.122669, 0.200491, 0.20422, 0.23528, 0.344652, 0.650491, 0.770363, 0.597498, 0.356183, 0.290628, 0.269725, 0.400932, 0.66683, 0.870609, 1.0, 0.741658, 0.42262, 0.22051)
New "Loadshape.RES_11_SA" 24 1 mult=(0.270507, 0.22116, 0.191912, 0.186846, 0.180719, 0.179493, 0.268219, 0.472467, 0.338971, 0.417892, 0.581373, 0.659559, 0.809069, 0.861193, 0.69951, 0.567647, 0.790114, 1.0, 0.975899, 0.798938, 0.676144, 0.922386, 0.799101, 0.422304)
New "Loadshape.RES_11_DO" 24 1 mult=(0.19161, 0.155332, 0.148656, 0.142984, 0.126204, 0.119527, 0.129335, 0.176662, 0.222629, 0.457134, 0.278464, 0.355864, 0.406736, 0.600532, 0.483959, 0.4439, 0.298257, 0.509247, 1.0, 0.505584, 0.638759, 0.572171, 0.550842, 0.340739)
New "Loadshape.RES_12_DU" 24 1 mult=(0.625331, 0.616969, 0.613094, 0.620029, 0.617989, 0.614726, 0.608199, 0.650826, 0.744034, 0.575362, 0.380583, 0.300224, 0.354681, 0.160514, 0.053641, 0.051397, 0.04487, 0.050989, 0.786661, 1.0, 0.715888, 0.624311, 0.570263, 0.097899)
New "Loadshape.RES_12_SA" 24 1 mult=(0.033214, 0.139171, 0.143563, 0.033764, 0.131759, 0.121878, 0.036234, 0.545155, 1.0, 0.975021, 0.849849, 0.281361, 0.062037, 0.066703, 0.090859, 0.103212, 0.071095, 0.122701, 0.26846, 0.413944, 0.835575, 0.814713, 0.425473, 0.039253)
New "Loadshape.RES_8_DU" 24 1 mult=(0.157994, 0.105486, 0.078722, 0.088376, 0.075818, 0.083432, 0.084138, 0.290009, 0.562044, 0.424142, 0.4367, 0.342202, 0.384664, 0.470136, 0.296994, 0.219057, 0.235068, 0.210502, 0.72459, 1.0, 0.333255, 0.276352, 0.34597, 0.205871)
New "Loadshape.RES_8_SA" 24 1 mult=(0.182319, 0.138779, 0.136684, 0.137566, 0.12996, 0.116182, 0.142967, 0.250662, 0.406305, 0.740961, 0.421517, 0.444555, 0.252205, 0.438272, 0.282297, 0.385141, 0.439264, 0.290454, 1.0, 0.497795, 0.459546, 0.407738, 0.332672, 0.224758)
New "Loadshape.RES_8_DO" 24 1 mult=(0.170967, 0.128524, 0.127927, 0.131015, 0.119159, 0.11906, 0.124539, 0.094251, 0.368038, 0.3783, 0.674504, 0.457507, 1.0, 0.442861, 0.19199, 0.201355, 0.625087, 0.322806, 0.59719, 0.572183, 0.441566, 0.325296, 0.329282, 0.212215)
New "Loadshape.RES_9_DU" 24 1 mult=(0.406297, 0.407637, 0.524033, 0.378161, 0.42204, 0.533746, 0.505945, 0.765534, 0.827835, 0.457545, 0.854296, 1.0, 0.748786, 0.982415, 0.613298, 0.678781, 0.747279, 0.744766, 0.55669, 0.698543, 0.736728, 0.583654, 0.591358, 0.336627)
New "Loadshape.RES_9_SA" 24 1 mult=(0.29574, 0.265281, 0.433011, 0.259724, 0.397612, 0.658778, 0.603005, 0.634493, 0.672772, 0.840091, 0.527475, 0.66701, 0.571723, 0.417576, 0.50319, 0.301091, 0.280511, 0.524388, 0.387116, 0.964396, 0.675653, 1.0, 0.791932, 0.811072)
New "Loadshape.RES_9_DO" 24 1 mult=(0.182978, 0.1466, 0.254242, 0.132211, 0.203611, 0.170626, 0.16221, 0.439663, 0.365142, 0.53631, 1.0, 0.615583, 0.535768, 0.319262, 0.274874, 0.433148, 0.247998, 0.620741, 0.485543, 0.376137, 0.466404, 0.36745, 0.213791, 0.265508)
New "Loadshape.RES_10_DU" 24 1 mult=(0.175573, 0.160305, 0.140426, 0.129612, 0.129612, 0.120388, 0.145197, 0.195292, 0.19736, 0.780693, 0.558206, 0.447996, 0.93416, 1.0, 0.530057, 0.488073, 0.241889, 0.21883, 0.474555, 0.359733, 0.331743, 0.411896, 0.313136, 0.261132)
New "Loadshape.RES_5_DO" 24 1 mult=(0.253719, 0.182208, 0.228261, 0.187929, 0.200229, 0.16762, 0.211671, 0.410756, 0.325229, 0.474543, 0.942792, 0.876144, 0.790046, 0.933638, 1.0, 0.873856, 0.610984, 0.507437, 0.508009, 0.671339, 0.626717, 0.393021, 0.337815, 0.197654)
New "Loadshape.RES_6_DU" 24 1 mult=(0.262074, 0.159801, 0.843395, 0.088778, 0.085227, 0.078125, 0.078125, 0.099432, 0.300426, 0.146662, 0.294745, 0.561079, 1.0, 0.261719, 0.715909, 0.648082, 0.338068, 0.833806, 0.321733, 0.097656, 0.15625, 0.096591, 0.115767, 0.132813)
New "Loadshape.RES_6_SA" 24 1 mult=(0.054379, 0.039496, 0.306049, 0.038351, 0.033391, 0.048082, 0.04503, 0.05705, 0.099217, 0.127075, 0.233353, 0.122686, 0.177065, 0.096547, 0.067926, 0.255867, 1.0, 0.152834, 0.156459, 0.098264, 0.090822, 0.096165, 0.062202, 0.10685)
New "Loadshape.RES_6_DO" 24 1 mult=(0.16737, 0.114249, 0.11172, 0.099916, 0.104553, 0.109612, 0.10371, 0.201518, 0.161467, 0.431703, 0.677066, 0.233136, 0.216695, 0.12479, 0.381956, 0.116358, 0.090219, 0.203625, 0.197302, 0.282883, 0.484401, 1.0, 0.345278, 0.297639)
New "Loadshape.RES_7_DU" 24 1 mult=(0.129436, 0.115225, 0.113881, 0.111, 0.072745, 0.072208, 0.107159, 0.09122, 0.102051, 0.089491, 0.109886, 0.11077, 0.160547, 0.150522, 0.136234, 0.138309, 0.491435, 1.0, 0.364111, 0.345714, 0.354125, 0.314718, 0.212974, 0.170533)
New "Loadshape.RES_7_SA" 24 1 mult=(0.146039, 0.115207, 0.115866, 0.132818, 0.174567, 0.183728, 0.207867, 0.252908, 0.18713, 0.243033, 0.157066, 0.264757, 0.31298, 0.421933, 0.451942, 0.38567, 0.366085, 0.639346, 1.0, 0.504553, 0.361148, 0.38973, 0.277814, 0.227562)
New "Loadshape.RES_7_DO" 24 1 mult=(0.468508, 0.347531, 0.332767, 0.375252, 0.340627, 0.319703, 0.257886, 0.2564, 0.306001, 0.497398, 0.443548, 0.453956, 0.544981, 0.821455, 0.501965, 0.445991, 0.893574, 0.985661, 1.0, 0.951036, 0.754222, 0.626766, 0.525757, 0.673075)
New "Loadshape.RES_3_SA" 24 1 mult=(0.170501, 0.131579, 0.151592, 0.112512, 0.115979, 0.159785, 0.148913, 0.389694, 0.67381, 0.310747, 0.34116, 0.405925, 0.422628, 0.342735, 0.527892, 0.273873, 0.718563, 0.470533, 0.546328, 0.414434, 0.331547, 1.0, 0.293098, 0.2682)
New "Loadshape.RES_3_DO" 24 1 mult=(0.12067, 0.120799, 0.112106, 0.127157, 0.1256, 0.114182, 0.097833, 0.118593, 0.537044, 0.268068, 0.242766, 0.359933, 0.244323, 0.424419, 0.203062, 0.196834, 0.236798, 0.452316, 1.0, 0.663163, 0.625276, 0.507072, 0.744777, 0.206955)
New "Loadshape.RES_4_DU" 24 1 mult=(0.134632, 0.125327, 0.090724, 0.086363, 0.110497, 0.143356, 0.652516, 0.330619, 0.159349, 0.118058, 0.105554, 0.313754, 0.530968, 0.187845, 0.192498, 0.273626, 0.17447, 0.232044, 0.715033, 1.0, 0.458273, 0.548415, 0.400407, 0.203838)
New "Loadshape.RES_4_SA" 24 1 mult=(0.325607, 0.150308, 0.156103, 0.243752, 0.148134, 0.14234, 0.208258, 0.505976, 0.120971, 0.36762, 0.287939, 0.54799, 0.591452, 1.0, 0.778341, 0.23832, 0.613184, 0.625861, 0.433176, 0.500543, 0.760594, 0.336835, 0.351685, 0.198479)
New "Loadshape.RES_4_DO" 24 1 mult=(0.127863, 0.102824, 0.110016, 0.116143, 0.107352, 0.088972, 0.098029, 0.152371, 0.321523, 0.130261, 0.557538, 1.0, 0.175546, 0.20618, 0.19659, 0.234683, 0.139318, 0.152637, 0.362813, 0.511721, 0.330847, 0.392914, 0.147309, 0.137986)
New "Loadshape.RES_5_DU" 24 1 mult=(0.142429, 0.173056, 0.125723, 0.129578, 0.129364, 0.121439, 0.266224, 0.896123, 1.0, 0.620047, 0.569073, 0.523881, 0.535447, 0.493468, 0.53052, 0.505033, 0.631185, 0.526879, 0.322981, 0.759264, 0.716427, 0.705933, 0.593275, 0.247376)
New "Loadshape.RES_5_SA" 24 1 mult=(0.138968, 0.114159, 0.113554, 0.117991, 0.132311, 0.108915, 0.131908, 0.445341, 0.578056, 0.264219, 0.410649, 0.697055, 0.237394, 0.152077, 0.730537, 0.67265, 0.733764, 0.601452, 0.662162, 0.997378, 1.0, 0.556273, 0.419322, 0.231343)
New "Loadshape.RES_1_DU" 24 1 mult=(0.166463, 0.097723, 0.091747, 0.097676, 0.077585, 0.068222, 0.092924, 0.13094, 0.160958, 0.158558, 0.182695, 0.177472, 0.210596, 0.199539, 0.204291, 0.272184, 0.166604, 0.230357, 0.385716, 0.488896, 0.700009, 1.0, 0.641103, 0.371177)
New "Loadshape.RES_1_SA" 24 1 mult=(0.250165, 0.167901, 0.131681, 0.130362, 0.137987, 0.138353, 0.131755, 0.187331, 0.295623, 0.193929, 0.232348, 0.348193, 0.597478, 0.573136, 0.39651, 0.34394, 0.299582, 0.32715, 0.569323, 1.0, 0.56727, 0.630178, 0.349659, 0.315272)
New "Loadshape.RES_1_DO" 24 1 mult=(0.397704, 0.198804, 0.200251, 0.179223, 0.188676, 0.18366, 0.155493, 0.204109, 0.34388, 0.482878, 0.695669, 0.733674, 0.596315, 0.540465, 0.681875, 0.720845, 0.385164, 0.371467, 0.635189, 0.563615, 0.62072, 1.0, 0.949455, 0.439664)
New "Loadshape.RES_2_DU" 24 1 mult=(0.145789, 0.12556, 0.117324, 0.098484, 0.101966, 0.104372, 0.116365, 0.166624, 0.156666, 0.163876, 0.161205, 0.187773, 0.247207, 0.234726, 0.220288, 0.215729, 0.216688, 0.263934, 0.822459, 1.0, 0.675183, 0.345222, 0.267436, 0.188027)
New "Loadshape.RES_2_SA" 24 1 mult=(0.338871, 0.215651, 0.176584, 0.189526, 0.173815, 0.179022, 0.236448, 0.275455, 0.306155, 0.42459, 0.493664, 0.555124, 0.525899, 0.712325, 0.519398, 0.552716, 0.515154, 0.789105, 1.0, 0.890685, 0.817246, 0.525267, 0.487254, 0.461159)
New "Loadshape.RES_2_DO" 24 1 mult=(0.311558, 0.212798, 0.198188, 0.194276, 0.180569, 0.165558, 0.23142, 0.248704, 0.326134, 0.395941, 0.434489, 0.631507, 0.496239, 0.397412, 0.675437, 0.623483, 0.405871, 0.569924, 1.0, 0.882117, 0.76527, 0.852095, 0.623416, 0.389489)
New "Loadshape.RES_3_DU" 24 1 mult=(0.12814, 0.11641, 0.089632, 0.084873, 0.099037, 0.121279, 0.474162, 0.63406, 0.354321, 0.127918, 0.12825, 0.153812, 0.16023, 0.137988, 0.117185, 0.14496, 0.132566, 0.202058, 0.52617, 1.0, 0.496182, 0.220538, 0.194644, 0.330198)
New "Loadshape.COM_9_DO" 24 1 mult=(0.522013, 0.427307, 0.381613, 0.46857, 0.52894, 0.472721, 0.516474, 0.58903, 0.630573, 0.513151, 0.806978, 1.0, 0.674052, 0.533372, 0.484627, 0.420106, 0.429523, 0.540292, 0.604539, 0.495152, 0.428689, 0.43589, 0.41069, 0.396842)
New "Loadshape.COM_10_DU" 24 1 mult=(0.0463, 0.04261, 0.038711, 0.034812, 0.045882, 0.036343, 0.042053, 0.068231, 0.061199, 0.080625, 0.110909, 0.118429, 0.097334, 0.089536, 0.102067, 0.095175, 0.08313, 0.542923, 1.0, 0.930934, 0.688506, 0.225163, 0.06468, 0.05361)
New "Loadshape.COM_10_SA" 24 1 mult=(0.306825, 0.316021, 0.279229, 0.271514, 0.258756, 0.273294, 0.52018, 0.494959, 0.581306, 0.513058, 0.464982, 0.456379, 0.329972, 0.470324, 0.387831, 0.417214, 0.275368, 0.711868, 0.626407, 1.0, 0.471811, 0.40653, 0.245398, 0.191395)
New "Loadshape.COM_10_DO" 24 1 mult=(0.125366, 0.108101, 0.097048, 0.118288, 0.113798, 0.12036, 0.120705, 0.127613, 0.13711, 0.228456, 0.137455, 0.117597, 0.165428, 0.137455, 0.104992, 0.265759, 0.121742, 0.448802, 1.0, 0.274735, 0.255397, 0.172681, 0.136419, 0.107755)
New "Loadshape.COM_11_DU" 24 1 mult=(0.720888, 0.787654, 0.830486, 0.794504, 0.789387, 0.825328, 0.830486, 0.662664, 0.373277, 0.273954, 0.198606, 0.208881, 0.253405, 0.244822, 0.207188, 0.164357, 0.25683, 0.311629, 1.0, 0.796237, 0.739705, 0.719155, 0.720888, 0.630147)
New "Loadshape.COM_11_SA" 24 1 mult=(0.640216, 0.717825, 0.654327, 0.656111, 0.650799, 0.645528, 0.84835, 0.45856, 0.308612, 0.290973, 0.306869, 0.837767, 0.358, 0.306869, 0.287446, 0.317452, 0.444449, 0.499108, 1.0, 0.830712, 0.763685, 0.781324, 0.686076, 0.781324)
New "Loadshape.COM_11_DO" 24 1 mult=(0.754085, 0.661872, 0.665489, 0.660043, 0.793872, 0.658255, 0.658255, 0.419532, 0.271234, 0.303787, 0.30017, 0.343574, 0.269404, 0.273021, 0.339957, 0.30017, 0.285702, 0.500894, 1.0, 0.714298, 0.992766, 0.822809, 0.835447, 0.660043)
New "Loadshape.COM_7_SA" 24 1 mult=(0.254937, 0.260321, 0.239257, 0.252371, 0.252872, 0.249053, 0.251166, 0.4308, 0.870286, 1.0, 0.994288, 0.936747, 0.319802, 0.419533, 0.538841, 0.552377, 0.542737, 0.561297, 0.571218, 0.369003, 0.276783, 0.292855, 0.273872, 0.258646)
New "Loadshape.COM_7_DO" 24 1 mult=(0.77588, 0.765688, 0.788714, 0.722327, 0.708078, 0.738746, 0.750023, 0.755355, 0.953666, 0.980371, 1.0, 0.870718, 0.660706, 0.614702, 0.621685, 0.674341, 0.61088, 0.605266, 0.793762, 0.790412, 0.781306, 0.754789, 0.761112, 0.737944)
New "Loadshape.COM_8_DU" 24 1 mult=(0.164255, 0.131782, 0.12611, 0.121506, 0.123726, 0.114601, 0.187274, 0.486929, 0.809109, 0.672148, 0.619862, 0.925026, 0.871178, 0.739723, 1.0, 0.839034, 0.794641, 0.78083, 0.916558, 0.753453, 0.709881, 0.506988, 0.360984, 0.180122)
New "Loadshape.COM_8_SA" 24 1 mult=(0.15999, 0.136855, 0.149353, 0.135082, 0.136855, 0.127016, 0.273977, 0.594397, 0.792767, 0.578176, 0.606363, 0.928027, 0.890975, 0.569137, 0.712197, 0.859332, 0.675944, 0.656, 0.759085, 0.727973, 1.0, 0.669474, 0.488476, 0.239497)
New "Loadshape.COM_8_DO" 24 1 mult=(0.492832, 0.38027, 0.32078, 0.3364, 0.309651, 0.306015, 0.327411, 0.329768, 0.41558, 0.512944, 0.686708, 1.0, 0.718811, 0.588912, 0.746199, 0.59512, 0.85448, 0.772093, 0.886366, 0.747272, 0.762676, 0.699121, 0.490047, 0.439333)
New "Loadshape.COM_9_DU" 24 1 mult=(0.06783, 0.065649, 0.054386, 0.071433, 0.066257, 0.061235, 0.058901, 0.143777, 0.272944, 0.588555, 0.863832, 1.0, 0.947491, 0.577342, 0.419359, 0.368728, 0.280706, 0.22008, 0.113946, 0.103698, 0.093146, 0.10243, 0.082086, 0.074374)
New "Loadshape.COM_9_SA" 24 1 mult=(0.151217, 0.160358, 0.171087, 0.138003, 0.19096, 0.174267, 0.157178, 0.160756, 0.197118, 0.190562, 0.392449, 0.963935, 1.0, 0.426726, 0.198808, 0.235767, 0.208644, 0.181619, 0.220268, 0.195329, 0.271932, 0.175856, 0.189171, 0.176951)
New "Loadshape.COM_2_DO" 24 1 mult=(0.358702, 0.244005, 0.181429, 0.114564, 0.124481, 0.122737, 0.207691, 0.370627, 0.367278, 0.187325, 0.13949, 0.167628, 0.249094, 0.122605, 0.224172, 0.233017, 0.224708, 0.184645, 0.511857, 0.649603, 1.0, 0.639822, 0.394748, 0.393408)
New "Loadshape.COM_3_DU" 24 1 mult=(0.180221, 0.184959, 0.181377, 0.18, 0.180716, 0.181157, 0.185841, 0.535592, 0.954381, 1.0, 0.929422, 0.913168, 0.899284, 0.889587, 0.918458, 0.894105, 0.872453, 0.565951, 0.287768, 0.212562, 0.22011, 0.207604, 0.177576, 0.167218)
New "Loadshape.COM_3_SA" 24 1 mult=(0.4215, 0.398274, 0.405307, 0.399336, 0.400663, 0.399602, 0.399867, 0.508293, 0.665825, 0.883211, 1.0, 0.954876, 0.803981, 0.784472, 0.613933, 0.459853, 0.431453, 0.399998, 0.454544, 0.444856, 0.446849, 0.43278, 0.354347, 0.334838)
New "Loadshape.COM_3_DO" 24 1 mult=(0.599998, 0.640846, 0.623237, 0.621358, 0.622065, 0.640139, 0.619011, 0.74554, 1.0, 0.909625, 0.955395, 0.836616, 0.817603, 0.819249, 0.840373, 0.822768, 0.751643, 0.719014, 0.812676, 0.827463, 0.82042, 0.815256, 0.658213, 0.607748)
New "Loadshape.COM_4_DU" 24 1 mult=(0.272249, 0.274782, 0.28051, 0.31702, 0.292823, 0.286082, 0.310395, 0.34375, 0.473387, 0.677135, 0.974984, 0.912562, 0.821813, 0.635871, 0.705073, 0.643742, 0.693812, 0.773885, 0.996142, 0.959203, 1.0, 0.687383, 0.427797, 0.321072)
New "Loadshape.COM_4_SA" 24 1 mult=(0.268903, 0.265991, 0.299273, 0.288671, 0.322109, 0.305099, 0.301798, 0.336712, 0.437221, 0.623558, 0.838829, 0.976504, 0.871179, 0.592295, 0.543439, 0.564371, 0.62282, 0.6622, 1.0, 0.894986, 0.847333, 0.751175, 0.640103, 0.314964)
New "Loadshape.COM_4_DO" 24 1 mult=(0.523871, 0.509896, 0.543888, 0.575616, 0.556806, 0.58604, 0.617389, 0.656596, 0.592688, 0.673289, 0.76862, 0.670418, 0.661731, 0.763862, 0.752908, 0.906708, 0.985571, 0.958453, 1.0, 0.822178, 0.701163, 0.720275, 0.62381, 0.572141)
New "Loadshape.COM_5_DU" 24 1 mult=(0.134649, 0.134967, 0.106774, 0.091558, 0.089171, 0.091071, 0.09991, 0.296342, 0.745484, 0.991736, 1.0, 0.854219, 0.320633, 0.606913, 0.803662, 0.796981, 0.738275, 0.644086, 0.24588, 0.107288, 0.101885, 0.101323, 0.102372, 0.101952)
New "Loadshape.COM_5_SA" 24 1 mult=(0.221226, 0.22214, 0.206722, 0.187238, 0.177519, 0.173793, 0.156537, 0.239238, 0.633392, 0.978883, 1.0, 0.735943, 0.180199, 0.209048, 0.227108, 0.210851, 0.180089, 0.166303, 0.161067, 0.213128, 0.175534, 0.196018, 0.218462, 0.183755)
New "Loadshape.COM_5_DO" 24 1 mult=(0.986215, 0.972568, 0.960888, 0.929586, 0.847287, 0.838528, 0.731377, 0.670674, 0.65397, 0.670469, 0.719291, 0.878726, 0.887757, 0.870577, 0.748489, 0.731039, 0.731649, 0.748014, 0.928771, 0.903918, 0.899641, 0.980513, 1.0, 0.955321)
New "Loadshape.COM_6_DU" 24 1 mult=(0.155781, 0.057449, 0.055932, 0.039498, 0.038393, 0.064355, 0.087835, 0.191271, 0.351332, 0.925009, 0.87557, 0.534319, 0.510703, 0.509046, 0.608479, 1.0, 0.81439, 0.649357, 0.52534, 0.246098, 0.248308, 0.538186, 0.459191, 0.136032)
New "Loadshape.COM_6_SA" 24 1 mult=(0.133593, 0.104641, 0.099376, 0.124712, 0.136884, 0.140833, 0.120763, 0.180981, 0.295162, 0.208291, 0.876272, 1.0, 0.48305, 0.846004, 0.338926, 0.151697, 0.231986, 0.568605, 0.169467, 0.230994, 0.227704, 0.40836, 0.252389, 0.183614)
New "Loadshape.COM_6_DO" 24 1 mult=(0.065061, 0.058743, 0.057978, 0.066781, 0.106009, 0.103519, 0.086489, 0.061233, 0.449481, 0.092424, 0.190967, 0.345197, 0.587446, 0.216611, 0.312092, 0.395907, 0.119977, 1.0, 0.19135, 0.176041, 0.125141, 0.120359, 0.128586, 0.093379)
New "Loadshape.COM_7_DU" 24 1 mult=(0.221177, 0.207124, 0.204713, 0.209388, 0.201383, 0.205672, 0.209482, 0.369477, 0.777784, 0.895872, 0.859839, 0.835076, 0.29536, 0.614818, 0.86919, 0.850661, 0.934329, 1.0, 0.852433, 0.38738, 0.254306, 0.233859, 0.232553, 0.220964)
New "Loadshape.COM_12_DU" 24 1 mult=(0.99853, 0.998071, 0.231532, 0.001745, 0.001652, 0.332047, 0.999081, 1.0, 0.962147, 0.001652, 0.842245, 0.993477, 0.993938, 0.993477, 0.993754, 0.995957, 0.235391, 0.561283, 0.994396, 0.99458, 0.230429, 0.79107, 0.996969, 0.99899)
New "Loadshape.COM_12_SA" 24 1 mult=(0.997337, 0.995134, 0.22616, 0.00165, 0.001743, 0.335934, 0.997613, 0.99697, 0.955943, 0.001559, 0.853601, 0.998438, 0.99743, 0.997246, 0.998071, 0.998255, 0.230473, 0.567048, 0.99541, 0.997246, 0.22671, 0.798348, 0.99752, 1.0)
New "Loadshape.COM_12_DO" 24 1 mult=(0.999265, 0.998345, 0.232488, 0.001746, 0.001746, 0.001653, 0.833977, 0.998897, 0.962401, 0.001653, 0.848871, 0.998161, 0.998897, 0.99899, 0.998897, 0.998806, 0.236533, 0.562328, 0.996139, 0.99899, 0.233591, 0.794264, 0.998161, 1.0)
New "Loadshape.COM_13_DU" 24 1 mult=(0.317509, 0.241813, 0.242105, 0.280964, 0.3173, 0.308456, 0.501398, 0.838513, 0.62755, 0.538171, 0.73007, 0.650974, 0.419382, 0.668766, 0.78887, 0.547558, 0.397772, 0.304472, 0.608777, 0.928309, 1.0, 0.881524, 0.55077, 0.491365)
New "Loadshape.COM_13_SA" 24 1 mult=(0.290335, 0.20387, 0.182916, 0.182098, 0.209926, 0.200923, 0.519153, 0.614916, 0.590394, 0.836793, 0.758119, 0.559848, 0.454754, 0.569834, 0.510968, 0.443655, 0.784344, 0.636393, 0.813416, 1.0, 0.881679, 0.698402, 0.543085, 0.412945)
New "Loadshape.COM_13_DO" 24 1 mult=(0.417455, 0.426384, 0.390314, 0.38653, 0.371452, 0.41781, 0.480073, 0.751182, 0.983207, 0.749645, 0.632924, 0.644927, 0.842302, 0.603062, 0.601998, 0.545885, 0.599871, 0.621866, 0.795529, 1.0, 0.724161, 0.484627, 0.411423, 0.38854)