New "Loadshape.RUR_11_SA" 24 1 mult=(0.066342, 0.009284, 0.067634, 0.103479, 0.0, 0.043777, 0.189035, 0.898578, 0.37666, 0.295746, 0.490069, 0.139264, 0.207604, 0.06499, 0.157187, 0.451581, 0.685686, 1.0, 0.452932, 0.158479, 0.661182, 0.093548, 0.058409, 0.102127)
New "Loadshape.RUR_11_DO" 24 1 mult=(0.063534, 0.040423, 0.326283, 0.041446, 0.09432, 0.0, 0.007761, 0.180965, 1.0, 0.640031, 0.870032, 0.362869, 0.810336, 0.355108, 0.108733, 0.119393, 0.143442, 0.046222, 0.628433, 0.465802, 0.929729, 0.072233, 0.079908, 0.012536)
New "Loadshape.COM_1_DU" 24 1 mult=(0.17312, 0.0, 0.005735, 0.255927, 0.30754, 0.397071, 0.533934, 0.685647, 0.79873, 0.832832, 1.0, 0.903142, 0.809775, 0.880431, 0.97271, 0.807382, 0.927831, 0.894857, 0.830578, 0.78384, 0.741976, 0.727511, 0.742856, 0.541992)
New "Loadshape.COM_1_SA" 24 1 mult=(0.302496, 0.047783, 0.0, 0.298767, 0.36971, 0.416617, 0.597533, 0.794673, 0.907361, 0.976926, 0.972736, 0.978433, 0.810149, 0.939627, 0.934411, 0.894675, 1.0, 0.950068, 0.972181, 0.841506, 0.786765, 0.781913, 0.789811, 0.591313)
New "Loadshape.COM_1_DO" 24 1 mult=(0.39665, 0.084237, 0.0, 0.351951, 0.386313, 0.469799, 0.813949, 0.803523, 0.74182, 0.742215, 0.962476, 0.983507, 0.950138, 0.937061, 0.90187, 0.821214, 0.944759, 0.962208, 0.966338, 1.0, 0.983163, 0.816511, 0.913953, 0.504709)
New "Loadshape.COM_2_DU" 24 1 mult=(0.011224, 0.006203, 0.020347, 0.0, 0.007208, 0.010859, 0.102928, 0.025913, 0.120539, 0.102198, 0.106396, 0.15193, 0.23232, 0.092434, 0.118077, 0.139976, 0.126745, 0.090336, 0.357697, 0.782554, 1.0, 0.7925, 0.875535, 0.580892)
New "Loadshape.COM_2_SA" 24 1 mult=(0.262913, 0.088646, 0.000852, 0.0, 0.001241, 0.025747, 0.155034, 0.088801, 0.016518, 0.031642, 0.025437, 0.024196, 0.037071, 0.158058, 0.111059, 0.091283, 0.094075, 0.063286, 0.213277, 0.659842, 1.0, 0.785249, 0.484023, 0.292538)
New "Loadshape.RUR_9_DU" 24 1 mult=(0.126639, 0.071562, 0.064667, 0.057786, 0.114948, 0.084686, 0.505448, 1.0, 0.487997, 0.38281, 0.381037, 0.210374, 0.33558, 0.08165, 0.059716, 0.077649, 0.497602, 0.533142, 0.491672, 0.393366, 0.025765, 0.012797, 0.001107, 0.0)
New "Loadshape.RUR_9_SA" 24 1 mult=(0.007803, 0.004541, 0.008267, 0.0, 0.013861, 0.022014, 0.217915, 1.0, 0.472985, 0.563592, 0.193227, 0.070822, 0.118102, 0.161429, 0.206387, 0.197191, 0.58444, 0.886326, 0.393081, 0.138836, 0.096789, 0.06593, 0.01351, 0.023532)
New "Loadshape.RUR_9_DO" 24 1 mult=(0.0, 0.014837, 0.000715, 0.005618, 0.002592, 0.000868, 0.290783, 0.974067, 0.281411, 0.399714, 0.17695, 0.058941, 0.210238, 0.078388, 0.243948, 0.269166, 0.613693, 1.0, 0.446256, 0.17709, 0.165994, 0.053884, 0.056489, 0.054318)
New "Loadshape.RUR_10_DU" 24 1 mult=(0.11372, 0.142546, 0.104336, 0.083548, 0.081984, 0.107682, 0.175827, 0.249119, 0.522788, 0.93231, 0.62356, 0.645219, 0.398575, 0.223876, 0.107682, 0.104771, 0.136725, 0.344288, 1.0, 0.535973, 0.141635, 0.027262, 0.006256, 0.0)
New "Loadshape.RUR_10_SA" 24 1 mult=(0.014735, 0.019637, 0.014402, 0.009819, 0.0, 0.007208, 0.000986, 0.014895, 0.266294, 0.406062, 0.235025, 0.681827, 0.259246, 0.059086, 0.030602, 0.032734, 0.016693, 1.0, 0.767919, 0.597549, 0.4419, 0.138637, 0.143872, 0.1514)
New "Loadshape.RUR_10_DO" 24 1 mult=(0.082763, 0.053975, 0.064571, 0.056094, 0.064984, 0.069222, 0.06986, 0.070498, 0.404231, 0.812907, 0.668367, 1.0, 0.149641, 0.123404, 0.115996, 0.092928, 0.116408, 0.644868, 0.92487, 0.513231, 0.158737, 0.02815, 0.0, 0.008252)
New "Loadshape.RUR_11_DU" 24 1 mult=(0.024186, 0.042427, 0.0, 0.007765, 0.015046, 0.036036, 0.095369, 0.277048, 0.309444, 1.0, 0.445015, 0.080768, 0.167482, 0.485177, 0.163842, 0.195794, 0.195349, 0.201739, 0.594257, 0.402548, 0.229565, 0.014156, 0.007765, 0.00728)
New "Loadshape.RUR_6_DO" 24 1 mult=(0.308328, 0.06548, 0.102128, 0.054503, 0.0, 0.028624, 0.024125, 0.062736, 0.068224, 0.243838, 0.554894, 0.362814, 0.298133, 0.551159, 0.14211, 0.701103, 0.130352, 0.458845, 1.0, 0.536657, 0.377699, 0.619366, 0.484134, 0.22581)
New "Loadshape.RUR_7_DU" 24 1 mult=(0.015226, 0.014078, 0.014677, 0.011832, 0.036044, 0.060856, 0.087914, 0.175778, 0.05182, 0.00619, 0.085068, 0.066497, 0.423643, 0.221956, 0.072687, 0.0, 0.124507, 1.0, 0.218012, 0.086216, 0.054066, 0.054066, 0.050721, 0.020269)
New "Loadshape.RUR_7_SA" 24 1 mult=(0.052777, 0.049912, 0.077708, 0.07429, 0.045388, 0.043679, 0.10098, 0.251269, 0.097009, 0.018145, 0.105504, 0.001156, 0.084494, 0.4952, 0.253531, 0.0, 0.671023, 1.0, 0.643227, 0.100377, 0.063534, 0.060116, 0.059563, 0.057854)
New "Loadshape.RUR_7_DO" 24 1 mult=(0.0, 0.005477, 0.005477, 0.001798, 0.004578, 0.004578, 0.139295, 0.332952, 0.011036, 0.173383, 0.072836, 0.114363, 0.455653, 0.818278, 0.132837, 0.140195, 0.144772, 0.392953, 1.0, 0.261996, 0.147552, 0.139295, 0.125399, 0.096869)
New "Loadshape.RUR_8_DU" 24 1 mult=(0.136219, 0.151708, 0.143964, 0.0, 0.087472, 0.3959, 0.303189, 0.064237, 0.128474, 0.177221, 0.233941, 0.305923, 0.112984, 0.102733, 0.313667, 0.398405, 0.359909, 0.089977, 0.323918, 0.33918, 0.331663, 0.480638, 1.0, 0.146469)
New "Loadshape.RUR_8_SA" 24 1 mult=(0.0, 0.16788, 0.073259, 0.084019, 0.00712, 0.114241, 0.3125, 0.225, 0.564241, 0.075, 0.11962, 0.26962, 0.316139, 0.21788, 0.625, 0.29288, 0.203639, 0.04462, 0.61962, 1.0, 0.289241, 0.128639, 0.06962, 0.13038)
New "Loadshape.RUR_8_DO" 24 1 mult=(0.10016, 0.096253, 0.078139, 0.0, 0.130172, 0.164269, 0.370804, 0.012076, 0.246493, 0.274552, 0.162316, 0.188421, 0.082223, 0.254484, 0.220387, 0.060202, 0.158231, 0.240455, 0.314687, 1.0, 0.350737, 0.188421, 0.160362, 0.080092)
New "Loadshape.RUR_4_SA" 24 1 mult=(0.035379, 0.031935, 0.028491, 0.028491, 0.02129, 0.0, 0.077959, 0.084847, 0.06387, 0.056669, 0.06387, 0.074202, 0.243895, 0.084847, 0.070758, 0.10958, 0.314652, 0.10958, 1.0, 0.763306, 0.55479, 0.282718, 0.060113, 0.148403)
New "Loadshape.RUR_4_DO" 24 1 mult=(0.056898, 0.0, 0.033988, 0.033988, 0.056898, 0.00856, 0.056898, 0.076788, 0.133434, 1.0, 0.141994, 0.210222, 0.275428, 0.338117, 0.386455, 0.238671, 0.102216, 0.193102, 0.480111, 0.426234, 0.505791, 0.287009, 0.062437, 0.059668)
New "Loadshape.RUR_5_DU" 24 1 mult=(0.009816, 0.0, 0.0, 0.0, 0.006162, 0.01047, 0.544007, 0.003054, 0.213546, 0.085506, 0.082452, 0.059058, 0.019086, 0.016632, 0.051696, 0.050442, 0.060912, 0.048588, 1.0, 0.942142, 0.038172, 0.217199, 0.1089, 0.013524)
New "Loadshape.RUR_5_SA" 24 1 mult=(0.219122, 0.049335, 0.035514, 0.03359, 0.03359, 0.037526, 1.0, 0.274405, 0.189556, 0.239853, 0.285252, 0.0, 0.172761, 0.345521, 0.170749, 0.035514, 0.016795, 0.013821, 0.041463, 0.057295, 0.401767, 0.075052, 0.036564, 0.100682)
New "Loadshape.RUR_5_DO" 24 1 mult=(0.018331, 0.039698, 0.00421, 0.050809, 0.00421, 0.00421, 0.003917, 0.003597, 0.003917, 0.079983, 1.0, 0.306983, 0.099832, 0.08659, 0.025551, 0.285642, 0.0, 0.107346, 0.398396, 0.084779, 0.046013, 0.019556, 0.027363, 0.028268)
New "Loadshape.RUR_6_DU" 24 1 mult=(0.040256, 0.002905, 0.0, 0.025461, 0.040122, 0.005541, 0.05949, 0.121738, 0.048972, 0.072214, 0.043444, 0.120904, 0.227969, 0.114272, 0.058791, 0.061145, 0.114677, 0.076639, 1.0, 0.592888, 0.267257, 0.157569, 0.259657, 0.174718)
New "Loadshape.RUR_6_SA" 24 1 mult=(0.067381, 0.043917, 0.063057, 0.032842, 0.007333, 0.0, 0.027405, 0.175835, 0.117301, 0.071505, 0.035852, 0.526756, 0.239075, 0.217507, 0.333095, 1.0, 0.249218, 0.894539, 0.612695, 0.375133, 0.316582, 0.443628, 0.261225, 0.103964)
New "Loadshape.RUR_2_DU" 24 1 mult=(0.0, 0.068465, 0.022099, 0.028166, 0.022099, 0.051349, 0.017116, 0.359441, 0.239627, 0.260427, 0.614993, 0.218828, 0.567327, 0.13823, 0.062398, 0.19077, 0.414473, 0.282418, 1.0, 0.622251, 0.630809, 0.38024, 0.024483, 0.05384)
New "Loadshape.RUR_2_SA" 24 1 mult=(0.538636, 0.334091, 0.897727, 0.436364, 0.0, 0.872727, 0.359091, 0.975, 0.0, 0.359091, 0.975, 0.359091, 0.538636, 0.359091, 0.461364, 0.897727, 0.359091, 0.975, 0.334091, 0.693182, 0.204545, 1.0, 0.359091, 0.975)
New "Loadshape.RUR_2_DO" 24 1 mult=(0.054129, 0.04717, 0.0, 0.04717, 0.017476, 0.045314, 0.008661, 0.801114, 0.425766, 0.429323, 0.045314, 0.043613, 0.057532, 0.333282, 0.097742, 0.090783, 0.120476, 0.141355, 0.331581, 1.0, 0.268791, 0.052273, 0.001701, 0.048871)
New "Loadshape.RUR_3_DU" 24 1 mult=(0.005696, 0.004038, 0.011392, 0.001586, 0.0, 0.082126, 0.326267, 0.589949, 1.0, 0.025164, 0.024371, 0.071599, 0.056962, 0.07405, 0.066696, 0.077295, 0.062658, 0.942245, 0.286394, 0.55981, 0.418992, 0.147235, 0.059341, 0.002452)
New "Loadshape.RUR_3_SA" 24 1 mult=(0.348722, 0.334779, 0.321689, 0.340046, 0.326026, 0.122386, 0.012239, 0.178311, 1.0, 0.141596, 0.006119, 0.108366, 0.097909, 0.0, 0.020991, 0.018358, 0.169558, 0.759644, 0.647715, 0.327808, 0.098761, 0.09086, 0.048025, 0.017506)
New "Loadshape.RUR_3_DO" 24 1 mult=(0.011185, 0.012653, 0.010235, 0.003412, 0.042883, 0.02535, 0.00095, 0.195889, 0.434229, 0.318708, 0.368932, 0.149594, 0.011703, 0.0, 0.007298, 0.038003, 0.019995, 0.898169, 1.0, 0.356236, 0.264122, 0.178356, 0.073588, 0.032173)
New "Loadshape.RUR_4_DU" 24 1 mult=(0.077187, 0.045169, 0.167524, 0.180675, 0.129217, 0.012579, 0.038879, 0.141795, 0.129217, 0.316181, 0.032018, 0.077187, 0.715838, 0.122356, 0.122356, 0.34191, 0.102916, 0.309891, 0.361349, 0.864494, 1.0, 0.961121, 0.012579, 0.0)
New "Loadshape.RES_12_DO" 24 1 mult=(0.030808, 0.122951, 0.086206, 0.0, 0.136518, 0.004239, 0.096947, 0.070661, 1.0, 0.857829, 0.859525, 0.063312, 0.384398, 0.187959, 0.088751, 0.045506, 0.070379, 0.380441, 0.320237, 0.386376, 0.346523, 0.329847, 0.098643, 0.008762)
New "Loadshape.RES_13_DU" 24 1 mult=(0.138809, 0.046658, 0.012111, 0.004813, 0.0, 0.084931, 0.027637, 0.208214, 0.616645, 0.407344, 0.322491, 0.328701, 0.160314, 0.223896, 0.184846, 0.111793, 0.14797, 0.216831, 0.303936, 0.449266, 0.908547, 1.0, 0.335145, 0.546386)
New "Loadshape.RES_13_SA" 24 1 mult=(0.028749, 0.075836, 0.07278, 0.046705, 0.050239, 0.051767, 0.044317, 0.099045, 0.0, 0.090163, 0.231996, 0.246609, 0.44661, 0.136676, 0.083477, 0.12894, 0.269532, 0.250621, 0.219962, 0.220439, 0.257211, 0.080993, 1.0, 0.328462)
New "Loadshape.RES_13_DO" 24 1 mult=(0.065675, 0.065549, 0.0, 0.024581, 0.004664, 0.019665, 0.018656, 0.029497, 0.244044, 0.392411, 0.120635, 0.448632, 0.268877, 0.147233, 0.313627, 0.339846, 0.332661, 0.30392, 0.739065, 0.509895, 0.90924, 1.0, 0.351948, 0.333418)
New "Loadshape.RUR_1_DU" 24 1 mult=(0.107345, 0.0, 0.145095, 0.0, 0.133282, 0.011556, 0.03775, 0.34489, 0.127632, 0.142013, 0.003082, 1.0, 0.411659, 0.336158, 0.0, 0.168207, 0.003082, 0.281202, 0.530303, 0.779661, 0.324602, 0.295583, 0.063945, 0.162301)
New "Loadshape.RUR_1_SA" 24 1 mult=(0.049062, 0.10101, 0.0, 0.107648, 0.035786, 0.003463, 0.12381, 0.260606, 0.319192, 0.149784, 0.498413, 0.20202, 0.905339, 0.006638, 0.055411, 0.094661, 0.0, 0.227994, 0.527561, 1.0, 0.638384, 0.185859, 0.192208, 0.003463)
New "Loadshape.RUR_1_DO" 24 1 mult=(0.135692, 0.042597, 0.0, 0.162831, 0.003779, 0.0, 0.14325, 0.526967, 0.721058, 0.178289, 0.015459, 0.410855, 0.550326, 0.309859, 0.224665, 0.360357, 0.178289, 0.434215, 1.0, 0.817932, 0.368258, 0.205428, 0.100653, 0.054277)
New "Loadshape.RES_10_SA" 24 1 mult=(0.605405, 0.352434, 0.0, 0.010419, 0.021, 0.250855, 0.005046, 0.040046, 0.059743, 0.256552, 0.54322, 0.500407, 0.818004, 0.384828, 0.388898, 0.206251, 0.257529, 0.713983, 0.58001, 0.558196, 1.0, 0.168322, 0.231483, 0.406316)
New "Loadshape.RES_10_DO" 24 1 mult=(0.06796, 0.362683, 0.252096, 0.029001, 0.0145, 0.012928, 0.0, 0.373515, 0.053634, 0.677498, 0.434137, 1.0, 0.510657, 0.454402, 0.610238, 0.176974, 0.330189, 0.32058, 0.457547, 0.206149, 0.210692, 0.209469, 0.186059, 0.101677)
New "Loadshape.RES_11_DU" 24 1 mult=(0.055648, 0.007342, 0.0, 0.008778, 0.001932, 0.000166, 0.012918, 0.100475, 0.10467, 0.139616, 0.26267, 0.606768, 0.741636, 0.547146, 0.275643, 0.201888, 0.17837, 0.325991, 0.625152, 0.854422, 1.0, 0.709341, 0.350392, 0.122999)
New "Loadshape.RES_11_SA" 24 1 mult=(0.110923, 0.050782, 0.015135, 0.008961, 0.001494, 0.0, 0.108135, 0.357065, 0.194364, 0.290551, 0.489794, 0.585084, 0.767301, 0.830828, 0.633775, 0.473066, 0.7442, 1.0, 0.970627, 0.754954, 0.605297, 0.905407, 0.755153, 0.295927)
New "Loadshape.RES_11_DO" 24 1 mult=(0.081868, 0.040666, 0.033083, 0.026641, 0.007583, 0.0, 0.01114, 0.064891, 0.117098, 0.383439, 0.180513, 0.26842, 0.326198, 0.546302, 0.413904, 0.368407, 0.202993, 0.442625, 1.0, 0.438465, 0.58972, 0.514092, 0.489867, 0.251241)
New "Loadshape.RES_12_DU" 24 1 mult=(0.60773, 0.598975, 0.594918, 0.602178, 0.600043, 0.596626, 0.589793, 0.634423, 0.732009, 0.555413, 0.351484, 0.26735, 0.324365, 0.121076, 0.009182, 0.006833, 0.0, 0.006406, 0.776639, 1.0, 0.702541, 0.606662, 0.550075, 0.05552)
New "Loadshape.RES_12_SA" 24 1 mult=(0.0, 0.109597, 0.11414, 0.000568, 0.10193, 0.091709, 0.003123, 0.529529, 1.0, 0.974162, 0.84469, 0.256672, 0.029813, 0.034639, 0.059625, 0.072402, 0.039182, 0.092561, 0.243328, 0.39381, 0.829926, 0.808348, 0.405735, 0.006247)
New "Loadshape.RES_8_DU" 24 1 mult=(0.088917, 0.032102, 0.003142, 0.013588, 0.0, 0.008238, 0.009002, 0.231762, 0.526115, 0.3769, 0.390488, 0.288238, 0.334183, 0.426667, 0.239321, 0.154989, 0.172314, 0.145733, 0.701996, 1.0, 0.278556, 0.216985, 0.292314, 0.140722)
New "Loadshape.RES_8_SA" 24 1 mult=(0.074832, 0.025568, 0.023198, 0.024196, 0.01559, 0.0, 0.030307, 0.152158, 0.328262, 0.706909, 0.345473, 0.371539, 0.153904, 0.36443, 0.187952, 0.304316, 0.365553, 0.197182, 1.0, 0.431779, 0.388501, 0.329883, 0.244949, 0.122849)
New "Loadshape.RES_8_DO" 24 1 mult=(0.084699, 0.03784, 0.03718, 0.04059, 0.0275, 0.02739, 0.03344, 0.0, 0.302277, 0.313607, 0.640634, 0.401056, 1.0, 0.384886, 0.107909, 0.118249, 0.586074, 0.252338, 0.555275, 0.527665, 0.383456, 0.255087, 0.259487, 0.130239)
New "Loadshape.RES_9_DU" 24 1 mult=(0.105023, 0.107044, 0.282504, 0.06261, 0.128755, 0.297147, 0.255238, 0.646554, 0.74047, 0.182277, 0.780358, 1.0, 0.621308, 0.973491, 0.417066, 0.515779, 0.619036, 0.615249, 0.331734, 0.545569, 0.603131, 0.37238, 0.383994, 0.0)
New "Loadshape.RES_9_SA" 24 1 mult=(0.048652, 0.007506, 0.234084, 0.0, 0.186266, 0.539061, 0.463719, 0.506255, 0.557965, 0.783987, 0.36169, 0.550181, 0.421463, 0.213233, 0.328885, 0.05588, 0.028079, 0.35752, 0.172087, 0.951904, 0.561857, 1.0, 0.718932, 0.744787)
New "Loadshape.RES_9_DO" 24 1 mult=(0.058501, 0.016581, 0.140623, 0.0, 0.082278, 0.044267, 0.034569, 0.354294, 0.268419, 0.465665, 1.0, 0.557015, 0.46504, 0.215548, 0.164399, 0.346786, 0.133427, 0.56296, 0.407164, 0.281089, 0.385109, 0.271078, 0.094009, 0.153606)
New "Loadshape.RES_10_DU" 24 1 mult=(0.062737, 0.045381, 0.02278, 0.010486, 0.010486, 0.0, 0.028204, 0.085156, 0.087507, 0.750678, 0.49774, 0.372446, 0.925149, 1.0, 0.465739, 0.418008, 0.13813, 0.111915, 0.402639, 0.272103, 0.240282, 0.331405, 0.219129, 0.160007)
New "Loadshape.RES_5_DO" 24 1 mult=(0.103436, 0.017526, 0.072852, 0.024399, 0.039176, 0.0, 0.052921, 0.292097, 0.189347, 0.368729, 0.931272, 0.851203, 0.747766, 0.920275, 1.0, 0.848454, 0.532646, 0.408247, 0.408935, 0.605155, 0.551547, 0.270791, 0.204467, 0.036082)
New "Loadshape.RES_6_DU" 24 1 mult=(0.199538, 0.088598, 0.830124, 0.011556, 0.007704, 0.0, 0.0, 0.023112, 0.24114, 0.074345, 0.234977, 0.523883, 1.0, 0.199153, 0.691833, 0.618259, 0.281973, 0.819722, 0.264253, 0.021187, 0.084746, 0.020031, 0.040833, 0.059322)
New "Loadshape.RES_6_SA" 24 1 mult=(0.021713, 0.006316, 0.282077, 0.005132, 0.0, 0.015199, 0.012041, 0.024477, 0.068101, 0.096921, 0.206869, 0.09238, 0.148638, 0.065337, 0.035728, 0.230162, 1.0, 0.123569, 0.127319, 0.067114, 0.059416, 0.064943, 0.029807, 0.075996)
New "Loadshape.RES_6_DO" 24 1 mult=(0.084801, 0.026413, 0.023633, 0.010658, 0.015755, 0.021315, 0.014829, 0.122336, 0.078313, 0.375347, 0.645042, 0.157089, 0.139017, 0.037998, 0.320667, 0.02873, 0.0, 0.124652, 0.117702, 0.211769, 0.433271, 1.0, 0.280352, 0.227989)
New "Loadshape.RES_7_DU" 24 1 mult=(0.061682, 0.046365, 0.044916, 0.041811, 0.000579, 0.0, 0.037672, 0.020492, 0.032166, 0.018629, 0.040611, 0.041563, 0.095214, 0.08441, 0.06901, 0.071245, 0.451855, 1.0, 0.314622, 0.294792, 0.303858, 0.261384, 0.151722, 0.105978)
New "Loadshape.RES_7_SA" 24 1 mult=(0.034846, 0.0, 0.000744, 0.019903, 0.067088, 0.077443, 0.104725, 0.15563, 0.081287, 0.144469, 0.047309, 0.169023, 0.223524, 0.346664, 0.38058, 0.30568, 0.283544, 0.592386, 1.0, 0.440042, 0.277964, 0.310268, 0.18378, 0.126984)
New "Loadshape.RES_7_DO" 24 1 mult=(0.285245, 0.122554, 0.102699, 0.159834, 0.113269, 0.085131, 0.001999, 0.0, 0.066705, 0.324097, 0.251678, 0.265676, 0.388087, 0.759891, 0.330238, 0.254964, 0.856878, 0.980717, 1.0, 0.934152, 0.669476, 0.498072, 0.362234, 0.560349)
New "Loadshape.RES_3_SA" 24 1 mult=(0.065341, 0.021484, 0.044034, 0.0, 0.003906, 0.053267, 0.041016, 0.312323, 0.632457, 0.223366, 0.257635, 0.330611, 0.349432, 0.25941, 0.46804, 0.181818, 0.682884, 0.403409, 0.488814, 0.340199, 0.246804, 1.0, 0.20348, 0.175426)
New "Loadshape.RES_3_DO" 24 1 mult=(0.025313, 0.025457, 0.01582, 0.032504, 0.030778, 0.018122, 0.0, 0.023012, 0.48684, 0.188696, 0.16065, 0.290522, 0.162376, 0.362002, 0.11664, 0.109737, 0.154034, 0.392924, 1.0, 0.626636, 0.58464, 0.453617, 0.717101, 0.120955)
New "Loadshape.RES_4_DU" 24 1 mult=(0.052832, 0.042647, 0.004774, 0.0, 0.026416, 0.06238, 0.619669, 0.267345, 0.079885, 0.034691, 0.021005, 0.248886, 0.486633, 0.111075, 0.116167, 0.204965, 0.096435, 0.159452, 0.688096, 1.0, 0.407066, 0.505729, 0.343729, 0.12858)
New "Loadshape.RES_4_SA" 24 1 mult=(0.232798, 0.033375, 0.039967, 0.139678, 0.030902, 0.02431, 0.099299, 0.437989, 0.0, 0.280593, 0.189946, 0.485785, 0.535229, 1.0, 0.747837, 0.133498, 0.55995, 0.574372, 0.355171, 0.431809, 0.727648, 0.245571, 0.262464, 0.088175)
New "Loadshape.RES_4_DO" 24 1 mult=(0.04269, 0.015205, 0.023099, 0.029825, 0.020175, 0.0, 0.009942, 0.06959, 0.255263, 0.045322, 0.514327, 1.0, 0.095029, 0.128655, 0.118129, 0.159942, 0.055263, 0.069883, 0.300585, 0.464035, 0.265497, 0.333626, 0.064035, 0.053801)
New "Loadshape.RES_5_DU" 24 1 mult=(0.023891, 0.058752, 0.004876, 0.009264, 0.00902, 0.0, 0.164798, 0.881765, 1.0, 0.567528, 0.509508, 0.458069, 0.471233, 0.423452, 0.465626, 0.436616, 0.580205, 0.461482, 0.2294, 0.725988, 0.67723, 0.665285, 0.537055, 0.143344)
New "Loadshape.RES_5_SA" 24 1 mult=(0.033726, 0.005885, 0.005206, 0.010186, 0.026257, 0.0, 0.025804, 0.377547, 0.526483, 0.174287, 0.338615, 0.660027, 0.144183, 0.048438, 0.697601, 0.632639, 0.701222, 0.552739, 0.620869, 0.997058, 1.0, 0.502038, 0.348348, 0.137393)
New "Loadshape.RES_1_DU" 24 1 mult=(0.105433, 0.03166, 0.025248, 0.03161, 0.010048, 0.0, 0.02651, 0.06731, 0.099525, 0.09695, 0.122854, 0.117249, 0.152797, 0.140931, 0.146031, 0.218895, 0.105585, 0.174005, 0.340739, 0.451474, 0.678045, 1.0, 0.614825, 0.325136)
New "Loadshape.RES_1_SA" 24 1 mult=(0.137762, 0.043167, 0.001518, 0.0, 0.008768, 0.00919, 0.001602, 0.065509, 0.190034, 0.073097, 0.117275, 0.250485, 0.537138, 0.509148, 0.306045, 0.245595, 0.194587, 0.226288, 0.504763, 1.0, 0.502403, 0.574741, 0.252171, 0.21263)
New "Loadshape.RES_1_DO" 24 1 mult=(0.286808, 0.051285, 0.052998, 0.028098, 0.039292, 0.033352, 0.0, 0.057567, 0.223073, 0.387664, 0.639635, 0.684637, 0.521987, 0.455854, 0.623301, 0.669446, 0.271959, 0.25574, 0.568018, 0.483267, 0.550885, 1.0, 0.940149, 0.336493)
New "Loadshape.RES_2_DU" 24 1 mult=(0.052473, 0.030034, 0.020898, 0.0, 0.003863, 0.006532, 0.019835, 0.075584, 0.064539, 0.072535, 0.069573, 0.099043, 0.16497, 0.151125, 0.13511, 0.130054, 0.131117, 0.183525, 0.803064, 1.0, 0.6397, 0.273692, 0.187409, 0.099325)
New "Loadshape.RES_2_SA" 24 1 mult=(0.199781, 0.050638, 0.003352, 0.019016, 0.0, 0.006302, 0.075811, 0.123024, 0.160182, 0.303534, 0.38714, 0.46153, 0.426157, 0.651803, 0.418288, 0.458616, 0.413151, 0.744736, 1.0, 0.867687, 0.778798, 0.425392, 0.379381, 0.347796)
New "Loadshape.RES_2_DO" 24 1 mult=(0.174967, 0.056613, 0.039104, 0.034416, 0.017989, 0.0, 0.078929, 0.099643, 0.192436, 0.276093, 0.322289, 0.558396, 0.39629, 0.277856, 0.611042, 0.54878, 0.287992, 0.484595, 1.0, 0.858728, 0.718699, 0.822749, 0.5487, 0.26836)
New "Loadshape.RES_3_DU" 24 1 mult=(0.047279, 0.034462, 0.0052, 0.0, 0.015478, 0.039782, 0.425393, 0.600121, 0.294438, 0.047037, 0.0474, 0.075332, 0.082346, 0.058041, 0.035308, 0.065659, 0.052116, 0.128053, 0.482225, 1.0, 0.449456, 0.148247, 0.119952, 0.268077)
New "Loadshape.COM_9_DO" 24 1 mult=(0.227043, 0.073893, 0.0, 0.14062, 0.238245, 0.147333, 0.218085, 0.335416, 0.402597, 0.212711, 0.687862, 1.0, 0.472907, 0.245411, 0.166586, 0.062248, 0.077476, 0.256602, 0.360497, 0.183605, 0.076127, 0.087772, 0.047021, 0.024627)
New "Loadshape.COM_10_DU" 24 1 mult=(0.011902, 0.00808, 0.00404, 0.0, 0.01147, 0.001587, 0.007503, 0.034624, 0.027339, 0.047465, 0.078842, 0.086634, 0.064778, 0.056698, 0.069681, 0.06254, 0.050061, 0.526438, 1.0, 0.928443, 0.677272, 0.197217, 0.030946, 0.019476)
New "Loadshape.COM_10_SA" 24 1 mult=(0.142752, 0.154125, 0.108625, 0.099083, 0.083306, 0.101285, 0.406608, 0.375417, 0.482202, 0.3978, 0.338345, 0.327706, 0.171379, 0.344951, 0.242932, 0.27927, 0.10385, 0.643668, 0.537979, 1.0, 0.34679, 0.266058, 0.066786, 0.0)
New "Loadshape.COM_10_DO" 24 1 mult=(0.031362, 0.012241, 0.0, 0.023523, 0.01855, 0.025818, 0.0262, 0.033851, 0.044368, 0.145532, 0.04475, 0.022758, 0.075729, 0.04475, 0.008798, 0.186844, 0.027348, 0.38956, 1.0, 0.196785, 0.175369, 0.083762, 0.043603, 0.011858)
New "Loadshape.COM_11_DU" 24 1 mult=(0.665992, 0.745889, 0.797145, 0.754087, 0.747963, 0.790974, 0.797145, 0.596316, 0.250012, 0.131154, 0.040986, 0.053281, 0.106563, 0.096292, 0.051256, 0.0, 0.110661, 0.176238, 1.0, 0.75616, 0.68851, 0.663918, 0.665992, 0.557404)
New "Loadshape.COM_11_SA" 24 1 mult=(0.495078, 0.603996, 0.514881, 0.517386, 0.509931, 0.502534, 0.787175, 0.240142, 0.029705, 0.004951, 0.027258, 0.772322, 0.099016, 0.027258, 0.0, 0.042111, 0.220339, 0.297047, 1.0, 0.762421, 0.668356, 0.69311, 0.559439, 0.69311)
New "Loadshape.COM_11_DO" 24 1 mult=(0.663405, 0.537189, 0.54214, 0.534685, 0.717864, 0.532238, 0.532238, 0.205487, 0.002505, 0.047062, 0.042111, 0.10152, 0.0, 0.004951, 0.096569, 0.042111, 0.022308, 0.31685, 1.0, 0.608946, 0.990098, 0.75747, 0.774768, 0.534685)
New "Loadshape.COM_7_SA" 24 1 mult=(0.020612, 0.027688, 0.0, 0.017238, 0.017897, 0.012877, 0.015654, 0.251784, 0.82949, 1.0, 0.992492, 0.916853, 0.105877, 0.236974, 0.393804, 0.411598, 0.398926, 0.423323, 0.436365, 0.170551, 0.049328, 0.070454, 0.045502, 0.025487)
New "Loadshape.COM_7_DO" 24 1 mult=(0.432225, 0.406407, 0.464738, 0.296557, 0.260459, 0.338153, 0.366722, 0.380229, 0.882621, 0.950273, 1.0, 0.672483, 0.140449, 0.023906, 0.041595, 0.174993, 0.014224, 0.0, 0.477527, 0.469041, 0.445971, 0.378794, 0.394813, 0.336122)
New "Loadshape.COM_8_DU" 24 1 mult=(0.05608, 0.019404, 0.012998, 0.007798, 0.010306, 0.0, 0.082079, 0.42052, 0.784401, 0.629713, 0.570659, 0.915321, 0.854504, 0.706035, 1.0, 0.818199, 0.76806, 0.752462, 0.905758, 0.721541, 0.67233, 0.443176, 0.278273, 0.074001)
New "Loadshape.COM_8_SA" 24 1 mult=(0.037771, 0.01127, 0.025586, 0.009239, 0.01127, 0.0, 0.168343, 0.535383, 0.762616, 0.516802, 0.54909, 0.917555, 0.875113, 0.506447, 0.670322, 0.838866, 0.628795, 0.605949, 0.724032, 0.688394, 1.0, 0.621384, 0.414051, 0.128846)
New "Loadshape.COM_8_DO" 24 1 mult=(0.269194, 0.106999, 0.021275, 0.043783, 0.005239, 0.0, 0.030831, 0.034227, 0.157878, 0.298175, 0.548561, 1.0, 0.594819, 0.407641, 0.634285, 0.416587, 0.790313, 0.671596, 0.836259, 0.635831, 0.658027, 0.566448, 0.265182, 0.192105)
New "Loadshape.COM_9_DU" 24 1 mult=(0.014217, 0.01191, 0.0, 0.018027, 0.012554, 0.007243, 0.004775, 0.094533, 0.231128, 0.564891, 0.856, 1.0, 0.944471, 0.553033, 0.385964, 0.332421, 0.239336, 0.175223, 0.062986, 0.052148, 0.040989, 0.050808, 0.029294, 0.021138)
New "Loadshape.COM_9_SA" 24 1 mult=(0.01533, 0.025935, 0.038381, 0.0, 0.061435, 0.04207, 0.022246, 0.026396, 0.068579, 0.060974, 0.295183, 0.958161, 1.0, 0.334947, 0.07054, 0.113416, 0.081951, 0.0506, 0.095436, 0.066504, 0.155371, 0.043914, 0.05936, 0.045183)
New "Loadshape.COM_2_DO" 24 1 mult=(0.275726, 0.146189, 0.075516, 0.0, 0.0112, 0.00923, 0.105176, 0.289194, 0.285412, 0.082175, 0.02815, 0.059929, 0.151936, 0.009081, 0.12379, 0.133778, 0.124395, 0.079148, 0.448698, 0.604266, 1.0, 0.59322, 0.316436, 0.314923)
New "Loadshape.COM_3_DU" 24 1 mult=(0.015613, 0.021304, 0.017002, 0.015349, 0.016208, 0.016738, 0.022362, 0.442342, 0.945221, 1.0, 0.915251, 0.895733, 0.87906, 0.867417, 0.902084, 0.872842, 0.846842, 0.478797, 0.144756, 0.054449, 0.063513, 0.048495, 0.012438, 0.0)
New "Loadshape.COM_3_SA" 24 1 mult=(0.130287, 0.09537, 0.105943, 0.096967, 0.098962, 0.097366, 0.097765, 0.260772, 0.497603, 0.82442, 1.0, 0.932161, 0.705307, 0.675977, 0.41959, 0.187947, 0.14525, 0.097962, 0.179965, 0.165401, 0.168397, 0.147246, 0.02933, 0.0)
New "Loadshape.COM_3_DO" 24 1 mult=(0.0, 0.102121, 0.058097, 0.053401, 0.055169, 0.100354, 0.047532, 0.363852, 1.0, 0.774063, 0.888488, 0.591543, 0.544011, 0.548126, 0.600934, 0.556923, 0.379112, 0.297539, 0.531693, 0.568661, 0.551054, 0.538142, 0.145538, 0.019375)
New "Loadshape.COM_4_DU" 24 1 mult=(0.0, 0.00348, 0.011351, 0.061519, 0.02827, 0.019007, 0.052416, 0.098249, 0.276382, 0.556352, 0.965626, 0.879851, 0.755153, 0.499652, 0.594742, 0.510467, 0.579269, 0.689296, 0.994698, 0.943941, 1.0, 0.570434, 0.213738, 0.067087)
New "Loadshape.COM_4_SA" 24 1 mult=(0.003968, 0.0, 0.045344, 0.0309, 0.076455, 0.053281, 0.048784, 0.09635, 0.233281, 0.487142, 0.780424, 0.96799, 0.824497, 0.44455, 0.37799, 0.406508, 0.486138, 0.539788, 1.0, 0.856931, 0.79201, 0.661005, 0.509683, 0.06672)
New "Loadshape.COM_4_DO" 24 1 mult=(0.028515, 0.0, 0.069358, 0.134095, 0.095715, 0.155363, 0.219328, 0.299324, 0.168928, 0.333384, 0.527897, 0.327527, 0.309802, 0.518187, 0.495838, 0.809648, 0.97056, 0.915228, 1.0, 0.637176, 0.390258, 0.429255, 0.232428, 0.127004)
New "Loadshape.COM_5_DU" 24 1 mult=(0.049931, 0.05028, 0.019326, 0.002621, 0.0, 0.002086, 0.01179, 0.227453, 0.720567, 0.990927, 1.0, 0.839947, 0.254123, 0.568429, 0.784441, 0.777105, 0.712652, 0.609242, 0.172051, 0.019891, 0.013958, 0.013342, 0.014493, 0.014033)
New "Loadshape.COM_5_SA" 24 1 mult=(0.076695, 0.077778, 0.059499, 0.036399, 0.024877, 0.020459, 0.0, 0.098049, 0.565354, 0.974964, 1.0, 0.686938, 0.028053, 0.062257, 0.083669, 0.064394, 0.027923, 0.011579, 0.005371, 0.067094, 0.022523, 0.046808, 0.073418, 0.032269)
New "Loadshape.COM_5_DO" 24 1 mult=(0.960163, 0.920724, 0.886969, 0.796509, 0.558672, 0.533358, 0.223702, 0.048273, 0.0, 0.047682, 0.188774, 0.649529, 0.675628, 0.625979, 0.273153, 0.222723, 0.224487, 0.271781, 0.794154, 0.722331, 0.70997, 0.943683, 1.0, 0.870881)
New "Loadshape.COM_6_DU" 24 1 mult=(0.122075, 0.019817, 0.018239, 0.001149, 0.0, 0.026999, 0.051416, 0.158982, 0.325433, 0.922014, 0.870602, 0.515727, 0.491168, 0.489444, 0.592847, 1.0, 0.806979, 0.635358, 0.506389, 0.215998, 0.218296, 0.519748, 0.437599, 0.101537)
New "Loadshape.COM_6_SA" 24 1 mult=(0.037993, 0.005846, 0.0, 0.028131, 0.041647, 0.046031, 0.023746, 0.09061, 0.217389, 0.120933, 0.86262, 1.0, 0.426009, 0.829012, 0.265983, 0.058094, 0.147242, 0.521004, 0.077825, 0.146141, 0.142487, 0.343077, 0.169896, 0.093533)
New "Loadshape.COM_6_DO" 24 1 mult=(0.007519, 0.000813, 0.0, 0.009345, 0.050987, 0.048344, 0.030266, 0.003456, 0.415599, 0.036566, 0.141175, 0.304896, 0.562055, 0.168396, 0.269754, 0.358727, 0.065815, 1.0, 0.141581, 0.125329, 0.071297, 0.066221, 0.074954, 0.03758)
New "Loadshape.COM_7_DU" 24 1 mult=(0.024786, 0.007189, 0.00417, 0.010024, 0.0, 0.005371, 0.010141, 0.210481, 0.721749, 0.869614, 0.824496, 0.793488, 0.117675, 0.517689, 0.836205, 0.813003, 0.917769, 1.0, 0.815222, 0.232899, 0.066268, 0.040665, 0.039031, 0.024519)
New "Loadshape.COM_12_DU" 24 1 mult=(0.998527, 0.998068, 0.23026, 9.3e-05, 0.0, 0.330942, 0.99908, 1.0, 0.962085, 0.0, 0.841984, 0.993466, 0.993928, 0.993466, 0.993744, 0.99595, 0.234126, 0.560557, 0.994387, 0.994571, 0.229156, 0.790724, 0.996964, 0.998989)
New "Loadshape.COM_12_SA" 24 1 mult=(0.997333, 0.995126, 0.224951, 9.1e-05, 0.000184, 0.334897, 0.99761, 0.996965, 0.955875, 0.0, 0.853373, 0.998436, 0.997426, 0.997242, 0.998068, 0.998252, 0.229271, 0.566372, 0.995403, 0.997242, 0.225503, 0.798033, 0.997517, 1.0)
New "Loadshape.COM_12_DO" 24 1 mult=(0.999263, 0.998342, 0.231218, 9.3e-05, 9.3e-05, 0.0, 0.833702, 0.998895, 0.962339, 0.0, 0.848621, 0.998158, 0.998895, 0.998988, 0.998895, 0.998804, 0.23527, 0.561603, 0.996132, 0.998988, 0.232323, 0.793924, 0.998158, 1.0)
New "Loadshape.COM_13_DU" 24 1 mult=(0.099838, 0.0, 0.000385, 0.051638, 0.099563, 0.087898, 0.342375, 0.787009, 0.508763, 0.390878, 0.643979, 0.539657, 0.234202, 0.563124, 0.721533, 0.403257, 0.2057, 0.082644, 0.484002, 0.905445, 1.0, 0.843737, 0.407494, 0.329142)
New "Loadshape.COM_13_SA" 24 1 mult=(0.132335, 0.026619, 0.001, 0.0, 0.034024, 0.023016, 0.412097, 0.529181, 0.499199, 0.800457, 0.704267, 0.461852, 0.33336, 0.474061, 0.40209, 0.31979, 0.73633, 0.555439, 0.771875, 1.0, 0.855336, 0.631254, 0.441357, 0.282243)
New "Loadshape.COM_13_DO" 24 1 mult=(0.073189, 0.087394, 0.030009, 0.023988, 0.0, 0.073754, 0.172812, 0.604139, 0.973283, 0.601693, 0.415993, 0.43509, 0.749107, 0.368485, 0.366791, 0.277517, 0.363406, 0.3984, 0.674694, 1.0, 0.561149, 0.180057, 0.063593, 0.027186)
New "Loadshape.OUT_IP_1_Dia_util_DU" 24 1 mult=(1.0, 1.0, 1.0, 1.0, 1.0, 0.875233, 0.068064, 0.0, 0.0, 0.0, 0.0, 0.0, 0.0, 0.0, 0.0, 0.0, 0.0, 0.017139, 0.674077, 1.0, 1.0, 1.0, 1.0, 1.0)
New "Loadshape.OUT_IP_1_Dia_util_SA" 24 1 mult=(1.0, 1.0, 1.0, 1.0, 1.0, 0.875233, 0.068064, 0.0, 0.0, 0.0, 0.0, 0.0, 0.0, 0.0, 0.0, 0.0, 0.0, 0.017139, 0.674077, 1.0, 1.0, 1.0, 1.0, 1.0)
New "Loadshape.OUT_IP_1_Dia_util_DO" 24 1 mult=(1.0, 1.0, 1.0, 1.0, 1.0, 0.875233, 0.068064, 0.0, 0.0, 0.0, 0.0, 0.0, 0.0, 0.0, 0.0, 0.0, 0.0, 0.017139, 0.674077, 1.0, 1.0, 1.0, 1.0, 1.0)