New "Line.RBT_11022" phases=1 bus1="UC11022.1.4" bus2="BT6441.1.4" linecode="92_2" length=0.01350 units=km
New "Line.RBT_11061" phases=1 bus1="UC11061.2.4" bus2="BT74191.2.4" linecode="92_2" length=0.01100 units=km
New "Line.RBT_10909" phases=1 bus1="UC10909.1.4" bus2="BT74421.1.4" linecode="92_2" length=0.02600 units=km
New "Line.RBT_10910" phases=1 bus1="UC10910.1.4" bus2="BT74391.1.4" linecode="92_2" length=0.01950 units=km
New "Line.RBT_10986" phases=2 bus1="UC10986.2.3.4" bus2="BT75431.2.3.4" linecode="93_3" length=0.01500 units=km
New "Line.RBT_10971" phases=2 bus1="UC10971.2.3.4" bus2="BT24001.2.3.4" linecode="93_3" length=0.01500 units=km
New "Line.RBT_6813" phases=1 bus1="UC6813.3.4" bus2="BT2331.3.4" linecode="87_2" length=0.01600 units=km
New "Line.RBT_222" phases=1 bus1="UC222.3.4" bus2="BT23671.3.4" linecode="87_2" length=0.01200 units=km
New "Line.RBT_1985" phases=1 bus1="UC1985.1.4" bus2="BT6731.1.4" linecode="102_2" length=0.01600 units=km
New "Line.RBT_5203" phases=1 bus1="UC5203.3.4" bus2="BT14881.3.4" linecode="87_2" length=0.02200 units=km
New "Line.RBT_6369" phases=1 bus1="UC6369.2.4" bus2="BT2621.2.4" linecode="92_2" length=0.00500 units=km
New "Line.RBT_1984" phases=1 bus1="UC1984.3.4" bus2="BT10521.3.4" linecode="92_2" length=0.02300 units=km
New "Line.RBT_2800" phases=1 bus1="UC2800.3.4" bus2="BT4741.3.4" linecode="92_2" length=0.00550 units=km
New "Line.RBT_10982" phases=1 bus1="UC10982.3.4" bus2="BT73701.3.4" linecode="92_2" length=0.02250 units=km
New "Line.RBT_10993" phases=1 bus1="UC10993.3.4" bus2="BT73711.3.4" linecode="92_2" length=0.01100 units=km
New "Line.RBT_10972" phases=1 bus1="UC10972.1.4" bus2="BT74371.1.4" linecode="92_2" length=0.01150 units=km
New "Line.RBT_10996" phases=1 bus1="UC10996.2.4" bus2="BT74281.2.4" linecode="92_2" length=0.01950 units=km
New "Line.RBT_10991" phases=2 bus1="UC10991.1.2.4" bus2="BT74251.1.2.4" linecode="93_3" length=0.01750 units=km
New "Line.RBT_10952" phases=1 bus1="UC10952.3.4" bus2="BT73821.3.4" linecode="92_2" length=0.02000 units=km
New "Line.RBT_10934" phases=1 bus1="UC10934.2.4" bus2="BT73901.2.4" linecode="92_2" length=0.01400 units=km
New "Line.RBT_10954" phases=1 bus1="UC10954.1.4" bus2="BT73911.1.4" linecode="92_2" length=0.00400 units=km
New "Line.RBT_11007" phases=2 bus1="UC11007.1.2.4" bus2="BT1431.1.2.4" linecode="93_3" length=0.01300 units=km
New "Line.RBT_11028" phases=1 bus1="UC11028.2.4" bus2="BT4301.2.4" linecode="92_2" length=0.02200 units=km
New "Line.RBT_6503" phases=3 bus1="UC6503.1.2.3.4" bus2="BT26221.1.2.3.4" linecode="86_4" length=0.01700 units=km
New "Line.RBT_1959" phases=1 bus1="UC1959.2.4" bus2="BT18392.2.4" linecode="92_2" length=0.01000 units=km
New "Line.RBT_849" phases=1 bus1="UC849.3.4" bus2="BT30321.3.4" linecode="92_2" length=0.01100 units=km
New "Line.RBT_176" phases=2 bus1="UC176.1.2.4" bus2="BT7471.1.2.4" linecode="93_3" length=0.01700 units=km
New "Line.RBT_1849" phases=1 bus1="UC1849.1.4" bus2="BT21.1.4" linecode="102_2" length=0.01400 units=km
New "Line.RBT_5596" phases=1 bus1="UC5596.2.4" bus2="BT9911.2.4" linecode="87_2" length=0.02400 units=km
New "Line.RBT_1989" phases=1 bus1="UC1989.2.4" bus2="BT7731.2.4" linecode="102_2" length=0.01600 units=km
New "Line.RBT_5564" phases=1 bus1="UC5564.3.4" bus2="BT2231.3.4" linecode="87_2" length=0.02500 units=km
New "Line.RBT_838" phases=1 bus1="UC838.2.4" bus2="BT11641.2.4" linecode="102_2" length=0.01200 units=km
New "Line.RBT_10989" phases=2 bus1="UC10989.2.3.4" bus2="BT12921.2.3.4" linecode="93_3" length=0.01700 units=km
New "Line.RBT_10945" phases=1 bus1="UC10945.1.4" bus2="BT74381.1.4" linecode="92_2" length=0.00300 units=km
New "Line.RBT_10940" phases=3 bus1="UC10940.1.2.3.4" bus2="BT12911.1.2.3.4" linecode="86_4" length=0.02200 units=km
New "Line.RBT_10928" phases=1 bus1="UC10928.2.4" bus2="BT64701.2.4" linecode="87_2" length=0.02250 units=km
New "Line.RBT_1600" phases=2 bus1="UC1600.1.2.4" bus2="BT2612.1.2.4" linecode="93_3" length=0.00500 units=km
New "Line.RBT_7145" phases=1 bus1="UC7145.2.4" bus2="BT851.2.4" linecode="102_2" length=0.02200 units=km
New "Line.RBT_10929" phases=2 bus1="UC10929.1.2.4" bus2="BT5791.1.2.4" linecode="93_3" length=0.00200 units=km
New "Line.RBT_10941" phases=2 bus1="UC10941.2.3.4" bus2="BT73911.2.3.4" linecode="93_3" length=0.01300 units=km
New "Line.RBT_1454" phases=2 bus1="UC1454.1.2.4" bus2="BT2792.1.2.4" linecode="93_3" length=0.01200 units=km
New "Line.RBT_5488" phases=1 bus1="UC5488.3.4" bus2="BT16111.3.4" linecode="102_2" length=0.02400 units=km
New "Line.RBT_1992" phases=1 bus1="UC1992.3.4" bus2="BT77111.3.4" linecode="102_2" length=0.00950 units=km
New "Line.RBT_111" phases=1 bus1="UC111.2.4" bus2="BT2491.2.4" linecode="87_2" length=0.01400 units=km
New "Line.RBT_6588" phases=2 bus1="UC6588.1.2.4" bus2="BT9361.1.2.4" linecode="93_3" length=0.00300 units=km
New "Line.RBT_1142" phases=1 bus1="UC1142.2.4" bus2="BT8551.2.4" linecode="92_2" length=0.01850 units=km
New "Line.RBT_99" phases=3 bus1="UC99.1.2.3.4" bus2="BT6371.1.2.3.4" linecode="86_4" length=0.00500 units=km
New "Line.RBT_1464" phases=1 bus1="UC1464.1.4" bus2="BT23951.1.4" linecode="102_2" length=0.02300 units=km
New "Line.RBT_696" phases=1 bus1="UC696.2.4" bus2="BT23621.2.4" linecode="102_2" length=0.02600 units=km
New "Line.RBT_10959" phases=1 bus1="UC10959.2.4" bus2="BT3411.2.4" linecode="92_2" length=0.01250 units=km
New "Line.RBT_9207" phases=2 bus1="UC9207.1.2.4" bus2="BT68501.1.2.4" linecode="93_3" length=0.01700 units=km
New "Line.RBT_875" phases=1 bus1="UC875.3.4" bus2="BT23671.3.4" linecode="92_2" length=0.02350 units=km
New "Line.RBT_5728" phases=3 bus1="UC5728.1.2.3.4" bus2="BT7891.1.2.3.4" linecode="86_4" length=0.00700 units=km
New "Line.RBT_6690" phases=1 bus1="UC6690.2.4" bus2="BT75451.2.4" linecode="102_2" length=0.01300 units=km
New "Line.RBT_7181" phases=1 bus1="UC7181.2.4" bus2="BT10221.2.4" linecode="102_2" length=0.01400 units=km
New "Line.RBT_10493" phases=3 bus1="UC10493.1.2.3.4" bus2="BT21891.1.2.3.4" linecode="86_4" length=0.01500 units=km
New "Line.RBT_7332" phases=1 bus1="UC7332.2.4" bus2="BT8601.2.4" linecode="102_2" length=0.01350 units=km
New "Line.RBT_5176" phases=3 bus1="UC5176.1.2.3.4" bus2="ET1_13.1.2.3.4" linecode="86_4" length=0.02000 units=km
New "Line.RBT_282" phases=3 bus1="UC282.1.2.3.4" bus2="BT29211.1.2.3.4" linecode="86_4" length=0.02000 units=km
New "Line.RBT_8062" phases=3 bus1="UC8062.1.2.3.4" bus2="BT2301.1.2.3.4" linecode="86_4" length=0.01500 units=km
New "Line.RBT_7595" phases=3 bus1="UC7595.1.2.3.4" bus2="ET1_139.1.2.3.4" linecode="86_4" length=0.00600 units=km
New "Line.RBT_7163" phases=1 bus1="UC7163.3.4" bus2="BT14211.3.4" linecode="87_2" length=0.00450 units=km
New "Line.RBT_7009" phases=3 bus1="UC7009.1.2.3.4" bus2="BT14021.1.2.3.4" linecode="94_4" length=0.00800 units=km
New "Line.RBT_5609" phases=1 bus1="UC5609.2.4" bus2="ET1_131.2.4" linecode="92_2" length=0.01450 units=km
New "Line.RBT_7464" phases=1 bus1="UC7464.2.4" bus2="ET1_179.2.4" linecode="87_2" length=0.00950 units=km
New "Line.RBT_5429" phases=1 bus1="UC5429.1.4" bus2="BT761.1.4" linecode="92_2" length=0.00900 units=km
New "Line.RBT_1948" phases=3 bus1="UC1948.1.2.3.4" bus2="BT2511.1.2.3.4" linecode="94_4" length=0.00500 units=km
New "Line.RBT_5613" phases=1 bus1="UC5613.1.4" bus2="BT3811.1.4" linecode="92_2" length=0.00800 units=km
New "Line.RBT_2254" phases=1 bus1="UC2254.3.4" bus2="BT15891.3.4" linecode="102_2" length=0.02400 units=km
New "Line.RBT_7404" phases=1 bus1="UC7404.3.4" bus2="BT7971.3.4" linecode="87_2" length=0.02300 units=km
New "Line.RBT_6605" phases=3 bus1="UC6605.1.2.3.4" bus2="BT21171.1.2.3.4" linecode="86_4" length=0.01800 units=km
New "Line.RBT_6638" phases=3 bus1="UC6638.1.2.3.4" bus2="BT2341.1.2.3.4" linecode="105_4" length=0.02250 units=km
New "Line.RBT_802" phases=1 bus1="UC802.2.4" bus2="BT20981.2.4" linecode="102_2" length=0.01100 units=km
New "Line.RBT_2287" phases=1 bus1="UC2287.3.4" bus2="BT6541.3.4" linecode="102_2" length=0.01100 units=km
New "Line.RBT_5659" phases=1 bus1="UC5659.2.4" bus2="BT3801.2.4" linecode="92_2" length=0.01200 units=km
New "Line.RBT_8651" phases=1 bus1="UC8651.2.4" bus2="BT14701.2.4" linecode="92_2" length=0.01250 units=km
New "Line.RBT_11069" phases=3 bus1="UC11069.1.2.3.4" bus2="ET1_167.1.2.3.4" linecode="94_4" length=0.01000 units=km
New "Line.RBT_265" phases=2 bus1="UC265.2.3.4" bus2="BT19521.2.3.4" linecode="93_3" length=0.00500 units=km
New "Line.RBT_10084" phases=1 bus1="UC10084.3.4" bus2="BT28381.3.4" linecode="87_2" length=0.01950 units=km
New "Line.RBT_2319" phases=2 bus1="UC2319.2.3.4" bus2="BT7721.2.3.4" linecode="93_3" length=0.00300 units=km
New "Line.RBT_9281" phases=1 bus1="UC9281.1.4" bus2="BT27551.1.4" linecode="92_2" length=0.02100 units=km
New "Line.RBT_2496" phases=1 bus1="UC2496.3.4" bus2="BT16211.3.4" linecode="102_2" length=0.01800 units=km
New "Line.RBT_1945" phases=1 bus1="UC1945.1.4" bus2="BT26261.1.4" linecode="102_2" length=0.01300 units=km
New "Line.RBT_5880" phases=1 bus1="UC5880.3.4" bus2="BT2792.3.4" linecode="102_2" length=0.02400 units=km
New "Line.RBT_7873" phases=2 bus1="UC7873.3.1.4" bus2="BT17311.3.1.4" linecode="106_3" length=0.00600 units=km
New "Line.RBT_1664" phases=1 bus1="UC1664.1.4" bus2="BT11531.1.4" linecode="92_2" length=0.01700 units=km
New "Line.RBT_5612" phases=2 bus1="UC5612.1.2.4" bus2="ET1_131.1.2.4" linecode="93_3" length=0.01400 units=km
New "Line.RBT_7384" phases=1 bus1="UC7384.2.4" bus2="BT3452.2.4" linecode="92_2" length=0.01000 units=km
New "Line.RBT_11081" phases=1 bus1="UC11081.1.4" bus2="BT74381.1.4" linecode="92_2" length=0.01450 units=km
New "Line.RBT_11105" phases=1 bus1="UC11105.3.4" bus2="BT74281.3.4" linecode="92_2" length=0.01200 units=km
New "Line.RBT_5920" phases=1 bus1="UC5920.1.4" bus2="BT361.1.4" linecode="87_2" length=0.01800 units=km
New "Line.RBT_378" phases=2 bus1="UC378.1.2.4" bus2="BT8981.1.2.4" linecode="93_3" length=0.00200 units=km
New "Line.RBT_8055" phases=1 bus1="UC8055.3.4" bus2="BT1271.3.4" linecode="87_2" length=0.01850 units=km
New "Line.RBT_1484" phases=1 bus1="UC1484.3.4" bus2="BT77681.3.4" linecode="92_2" length=0.01300 units=km
New "Line.RBT_389" phases=1 bus1="UC389.2.4" bus2="BT13991.2.4" linecode="92_2" length=0.00850 units=km
New "Line.RBT_682" phases=3 bus1="UC682.1.2.3.4" bus2="BT251.1.2.3.4" linecode="86_4" length=0.01200 units=km
New "Line.RBT_231" phases=1 bus1="UC231.1.4" bus2="BT15131.1.4" linecode="102_2" length=0.01200 units=km
New "Line.RBT_10258" phases=1 bus1="UC10258.1.4" bus2="BT10121.1.4" linecode="92_2" length=0.00300 units=km
New "Line.RBT_2296" phases=3 bus1="UC2296.1.2.3.4" bus2="BT8971.1.2.3.4" linecode="94_4" length=0.00500 units=km
New "Line.RBT_2344" phases=2 bus1="UC2344.3.1.4" bus2="BT6352.3.1.4" linecode="93_3" length=0.01400 units=km
New "Line.RBT_5955" phases=1 bus1="UC5955.1.4" bus2="BT20682.1.4" linecode="92_2" length=0.00900 units=km
New "Line.RBT_9116" phases=1 bus1="UC9116.3.4" bus2="BT3831.3.4" linecode="92_2" length=0.01100 units=km
New "Line.RBT_10839" phases=1 bus1="UC10839.1.4" bus2="BT74171.1.4" linecode="92_2" length=0.02450 units=km
New "Line.RBT_270" phases=3 bus1="UC270.1.2.3.4" bus2="BT13791.1.2.3.4" linecode="86_4" length=0.00600 units=km
New "Line.RBT_7462" phases=2 bus1="UC7462.1.2.4" bus2="ET1_41.1.2.4" linecode="95_3" length=0.02000 units=km
New "Line.RBT_1924" phases=2 bus1="UC1924.3.1.4" bus2="BT80031.3.1.4" linecode="93_3" length=0.02200 units=km
New "Line.RBT_201" phases=3 bus1="UC201.1.2.3.4" bus2="BT7851.1.2.3.4" linecode="86_4" length=0.02400 units=km
New "Line.RBT_184" phases=1 bus1="UC184.2.4" bus2="BT11171.2.4" linecode="87_2" length=0.01250 units=km
New "Line.RBT_984" phases=1 bus1="UC984.1.4" bus2="BT981.1.4" linecode="92_2" length=0.01100 units=km
New "Line.RBT_332" phases=1 bus1="UC332.1.4" bus2="BT931.1.4" linecode="92_2" length=0.00650 units=km
New "Line.RBT_1430" phases=3 bus1="UC1430.1.2.3.4" bus2="ET1_14.1.2.3.4" linecode="86_4" length=0.02200 units=km
New "Line.RBT_6336" phases=3 bus1="UC6336.1.2.3.4" bus2="BT2171.1.2.3.4" linecode="86_4" length=0.01800 units=km
New "Line.RBT_892" phases=1 bus1="UC892.1.4" bus2="BT18291.1.4" linecode="87_2" length=0.02400 units=km
New "Line.RBT_5138" phases=3 bus1="UC5138.1.2.3.4" bus2="BT16601.1.2.3.4" linecode="94_4" length=0.02400 units=km
New "Line.RBT_1085" phases=2 bus1="UC1085.3.1.4" bus2="BT17511.3.1.4" linecode="93_3" length=0.02100 units=km
New "Line.RBT_1007" phases=1 bus1="UC1007.1.4" bus2="BT18451.1.4" linecode="102_2" length=0.02000 units=km
New "Line.RBT_1275" phases=1 bus1="UC1275.1.4" bus2="BT13501.1.4" linecode="87_2" length=0.01600 units=km
New "Line.RBT_1851" phases=1 bus1="UC1851.2.4" bus2="BT3521.2.4" linecode="92_2" length=0.01000 units=km
New "Line.RBT_9095" phases=2 bus1="UC9095.1.2.4" bus2="BT14571.1.2.4" linecode="93_3" length=0.01700 units=km
New "Line.RBT_10031" phases=1 bus1="UC10031.1.4" bus2="BT2931.1.4" linecode="92_2" length=0.01000 units=km
New "Line.RBT_8082" phases=3 bus1="UC8082.1.2.3.4" bus2="BT893.1.2.3.4" linecode="94_4" length=0.02400 units=km
New "Line.RBT_1697" phases=2 bus1="UC1697.2.3.4" bus2="BT11491.2.3.4" linecode="93_3" length=0.01300 units=km
New "Line.RBT_1928" phases=1 bus1="UC1928.1.4" bus2="BT16211.1.4" linecode="92_2" length=0.00600 units=km
New "Line.RBT_1068" phases=1 bus1="UC1068.3.4" bus2="BT14701.3.4" linecode="102_2" length=0.00600 units=km
New "Line.RBT_1405" phases=1 bus1="UC1405.2.4" bus2="BT18401.2.4" linecode="102_2" length=0.01100 units=km
New "Line.RBT_6411" phases=1 bus1="UC6411.2.4" bus2="BT17331.2.4" linecode="87_2" length=0.01100 units=km
New "Line.RBT_5143" phases=1 bus1="UC5143.2.4" bus2="BT12091.2.4" linecode="87_2" length=0.01400 units=km
New "Line.RBT_1536" phases=1 bus1="UC1536.3.4" bus2="BT6311.3.4" linecode="102_2" length=0.01700 units=km
New "Line.RBT_504" phases=1 bus1="UC504.1.4" bus2="BT15191.1.4" linecode="92_2" length=0.01800 units=km
New "Line.RBT_6338" phases=1 bus1="UC6338.3.4" bus2="ET1_131.3.4" linecode="92_2" length=0.02000 units=km
New "Line.RBT_6236" phases=3 bus1="UC6236.1.2.3.4" bus2="BT6841.1.2.3.4" linecode="86_4" length=0.02400 units=km
New "Line.RBT_1594" phases=1 bus1="UC1594.2.4" bus2="BT7831.2.4" linecode="102_2" length=0.02300 units=km
New "Line.RBT_2282" phases=1 bus1="UC2282.3.4" bus2="BT2911.3.4" linecode="92_2" length=0.00400 units=km
New "Line.RBT_230" phases=1 bus1="UC230.2.4" bus2="BT4181.2.4" linecode="87_2" length=0.01900 units=km
New "Line.RBT_6386" phases=1 bus1="UC6386.2.4" bus2="BT18122.2.4" linecode="87_2" length=0.00500 units=km
New "Line.RBT_2878" phases=1 bus1="UC2878.3.4" bus2="BT17491.3.4" linecode="87_2" length=0.01000 units=km
New "Line.RBT_5735" phases=1 bus1="UC5735.2.4" bus2="BT16761.2.4" linecode="102_2" length=0.02500 units=km
New "Line.RBT_9134" phases=3 bus1="UC9134.1.2.3.4" bus2="ET1_30.1.2.3.4" linecode="94_4" length=0.01400 units=km
New "Line.RBT_2316" phases=1 bus1="UC2316.1.4" bus2="BT3411.1.4" linecode="92_2" length=0.00950 units=km
New "Line.RBT_1345" phases=1 bus1="UC1345.3.4" bus2="BT1981.3.4" linecode="102_2" length=0.02800 units=km
New "Line.RBT_5338" phases=1 bus1="UC5338.2.4" bus2="BT91.2.4" linecode="87_2" length=0.01450 units=km
New "Line.RBT_7752" phases=1 bus1="UC7752.2.4" bus2="BT7721.2.4" linecode="87_2" length=0.01000 units=km
New "Line.RBT_71" phases=1 bus1="UC71.3.4" bus2="BT14311.3.4" linecode="92_2" length=0.02000 units=km
New "Line.RBT_7180" phases=2 bus1="UC7180.1.2.4" bus2="BT24001.1.2.4" linecode="95_3" length=0.01450 units=km
New "Line.RBT_7148" phases=1 bus1="UC7148.3.4" bus2="BT77091.3.4" linecode="87_2" length=0.00750 units=km
New "Line.RBT_632" phases=1 bus1="UC632.3.4" bus2="BT11451.3.4" linecode="87_2" length=0.01000 units=km
New "Line.RBT_5006" phases=3 bus1="UC5006.1.2.3.4" bus2="BT8251.1.2.3.4" linecode="94_4" length=0.02300 units=km
New "Line.RBT_734" phases=1 bus1="UC734.1.4" bus2="BT30111.1.4" linecode="87_2" length=0.02800 units=km
New "Line.RBT_5147" phases=1 bus1="UC5147.3.4" bus2="BT11631.3.4" linecode="102_2" length=0.01250 units=km
New "Line.RBT_2089" phases=1 bus1="UC2089.1.4" bus2="BT16412.1.4" linecode="92_2" length=0.01850 units=km
New "Line.RBT_2176" phases=1 bus1="UC2176.3.4" bus2="BT751.3.4" linecode="87_2" length=0.00500 units=km
New "Line.RBT_641" phases=1 bus1="UC641.2.4" bus2="BT11391.2.4" linecode="87_2" length=0.02150 units=km
New "Line.RBT_210" phases=1 bus1="UC210.3.4" bus2="BT9071.3.4" linecode="92_2" length=0.00550 units=km
New "Line.RBT_5493" phases=1 bus1="UC5493.2.4" bus2="ET1_164.2.4" linecode="92_2" length=0.01300 units=km
New "Line.RBT_9406" phases=2 bus1="UC9406.1.2.4" bus2="BT11722.1.2.4" linecode="93_3" length=0.02400 units=km
New "Line.RBT_1143" phases=1 bus1="UC1143.1.4" bus2="BT8551.1.4" linecode="87_2" length=0.01400 units=km
New "Line.RBT_7267" phases=3 bus1="UC7267.1.2.3.4" bus2="BT16251.1.2.3.4" linecode="86_4" length=0.01700 units=km
New "Line.RBT_6034" phases=3 bus1="UC6034.1.2.3.4" bus2="BT1451.1.2.3.4" linecode="94_4" length=0.01000 units=km
New "Line.RBT_7575" phases=1 bus1="UC7575.3.4" bus2="BT16761.3.4" linecode="102_2" length=0.01000 units=km
New "Line.RBT_13" phases=1 bus1="UC13.1.4" bus2="BT3391.1.4" linecode="102_2" length=0.00500 units=km
New "Line.RBT_2320" phases=1 bus1="UC2320.1.4" bus2="BT171.1.4" linecode="87_2" length=0.02200 units=km
New "Line.RBT_8526" phases=1 bus1="UC8526.3.4" bus2="BT14211.3.4" linecode="102_2" length=0.02100 units=km
New "Line.RBT_497" phases=2 bus1="UC497.1.2.4" bus2="BT30351.1.2.4" linecode="95_3" length=0.01050 units=km
New "Line.RBT_6110" phases=3 bus1="UC6110.1.2.3.4" bus2="BT23571.1.2.3.4" linecode="105_4" length=0.00900 units=km
New "Line.RBT_2229" phases=1 bus1="UC2229.1.4" bus2="BT15241.1.4" linecode="92_2" length=0.01200 units=km
New "Line.RBT_858" phases=1 bus1="UC858.1.4" bus2="BT17491.1.4" linecode="92_2" length=0.02400 units=km
New "Line.RBT_11235" phases=3 bus1="UC11235.1.2.3.4" bus2="BT13141.1.2.3.4" linecode="86_4" length=0.02200 units=km
New "Line.RBT_11242" phases=2 bus1="UC11242.1.2.4" bus2="BT6941.1.2.4" linecode="93_3" length=0.01600 units=km
New "Line.RBT_11246" phases=1 bus1="UC11246.3.4" bus2="BT74241.3.4" linecode="92_2" length=0.01100 units=km
New "Line.RBT_11247" phases=1 bus1="UC11247.2.4" bus2="BT74111.2.4" linecode="92_2" length=0.01000 units=km
New "Line.RBT_2871" phases=1 bus1="UC2871.2.4" bus2="BT17151.2.4" linecode="102_2" length=0.00600 units=km
New "Line.RBT_7236" phases=3 bus1="UC7236.1.2.3.4" bus2="ET1_111.1.2.3.4" linecode="104_4" length=0.01200 units=km
New "Line.RBT_5129" phases=1 bus1="UC5129.2.4" bus2="BT18231.2.4" linecode="102_2" length=0.01350 units=km
New "Line.RBT_2299" phases=1 bus1="UC2299.1.4" bus2="BT3481.1.4" linecode="92_2" length=0.00400 units=km
New "Line.RBT_2311" phases=3 bus1="UC2311.1.2.3.4" bus2="BT18491.1.2.3.4" linecode="94_4" length=0.01500 units=km
New "Line.RBT_1777" phases=1 bus1="UC1777.3.4" bus2="BT6291.3.4" linecode="102_2" length=0.01300 units=km
New "Line.RBT_1790" phases=1 bus1="UC1790.3.4" bus2="BT5511.3.4" linecode="92_2" length=0.00350 units=km
New "Line.RBT_1657" phases=1 bus1="UC1657.2.4" bus2="BT21941.2.4" linecode="102_2" length=0.01350 units=km
New "Line.RBT_9530" phases=2 bus1="UC9530.1.2.4" bus2="BT27531.1.2.4" linecode="93_3" length=0.01700 units=km
New "Line.RBT_1074" phases=1 bus1="UC1074.2.4" bus2="BT7811.2.4" linecode="87_2" length=0.02700 units=km
New "Line.RBT_5158" phases=1 bus1="UC5158.3.4" bus2="BT24021.3.4" linecode="92_2" length=0.00800 units=km
New "Line.RBT_6440" phases=1 bus1="UC6440.2.4" bus2="BT14881.2.4" linecode="102_2" length=0.01300 units=km
New "Line.RBT_570" phases=2 bus1="UC570.3.1.4" bus2="BT6801.3.1.4" linecode="93_3" length=0.00700 units=km
New "Line.RBT_7202" phases=1 bus1="UC7202.2.4" bus2="BT6341.2.4" linecode="102_2" length=0.00500 units=km
New "Line.RBT_5166" phases=3 bus1="UC5166.1.2.3.4" bus2="BT23411.1.2.3.4" linecode="85_4" length=0.01200 units=km
New "Line.RBT_7763" phases=2 bus1="UC7763.2.3.4" bus2="BT11621.2.3.4" linecode="106_3" length=0.00200 units=km
New "Line.RBT_10727" phases=1 bus1="UC10727.3.4" bus2="BT74331.3.4" linecode="92_2" length=0.01100 units=km
New "Line.RBT_227" phases=1 bus1="UC227.2.4" bus2="BT12511.2.4" linecode="102_2" length=0.02200 units=km
New "Line.RBT_5922" phases=1 bus1="UC5922.2.4" bus2="ET1_64.2.4" linecode="87_2" length=0.00400 units=km
New "Line.RBT_5603" phases=1 bus1="UC5603.1.4" bus2="BT11521.1.4" linecode="102_2" length=0.01150 units=km
New "Line.RBT_10754" phases=2 bus1="UC10754.1.2.4" bus2="BT73861.1.2.4" linecode="93_3" length=0.02000 units=km
New "Line.RBT_1765" phases=2 bus1="UC1765.3.1.4" bus2="ET1_65.3.1.4" linecode="95_3" length=0.00500 units=km
New "Line.RBT_10272" phases=1 bus1="UC10272.2.4" bus2="BT69201.2.4" linecode="92_2" length=0.00400 units=km
New "Line.RBT_10296" phases=2 bus1="UC10296.1.2.4" bus2="BT14501.1.2.4" linecode="93_3" length=0.00500 units=km
New "Line.RBT_10678" phases=1 bus1="UC10678.3.4" bus2="BT74161.3.4" linecode="92_2" length=0.01400 units=km
New "Line.RBT_10731" phases=1 bus1="UC10731.2.4" bus2="BT74161.2.4" linecode="92_2" length=0.01400 units=km
New "Line.RBT_10691" phases=1 bus1="UC10691.1.4" bus2="BT74341.1.4" linecode="92_2" length=0.01050 units=km
New "Line.RBT_10535" phases=1 bus1="UC10535.2.4" bus2="BT16581.2.4" linecode="92_2" length=0.01700 units=km
New "Line.RBT_10526" phases=3 bus1="UC10526.1.2.3.4" bus2="BT75421.1.2.3.4" linecode="99_4" length=0.00500 units=km
New "Line.RBT_124" phases=1 bus1="UC124.1.4" bus2="BT11451.1.4" linecode="102_2" length=0.02550 units=km
New "Line.RBT_8911" phases=2 bus1="UC8911.1.2.4" bus2="BT9961.1.2.4" linecode="93_3" length=0.01400 units=km
New "Line.RBT_8869" phases=1 bus1="UC8869.3.4" bus2="ET1_13.3.4" linecode="92_2" length=0.02200 units=km
New "Line.RBT_8875" phases=2 bus1="UC8875.1.2.4" bus2="BT11411.1.2.4" linecode="93_3" length=0.01500 units=km
New "Line.RBT_2335" phases=1 bus1="UC2335.2.4" bus2="BT15951.2.4" linecode="87_2" length=0.01550 units=km
New "Line.RBT_9686" phases=3 bus1="UC9686.1.2.3.4" bus2="BT73161.1.2.3.4" linecode="86_4" length=0.01900 units=km
New "Line.RBT_9838" phases=1 bus1="UC9838.3.4" bus2="BT64571.3.4" linecode="92_2" length=0.01200 units=km
New "Line.RBT_10278" phases=1 bus1="UC10278.3.4" bus2="ET1_145.3.4" linecode="92_2" length=0.01500 units=km
New "Line.RBT_10525" phases=1 bus1="UC10525.3.4" bus2="BT10111.3.4" linecode="92_2" length=0.00250 units=km
New "Line.RBT_10746" phases=1 bus1="UC10746.2.4" bus2="BT9341.2.4" linecode="92_2" length=0.02700 units=km
New "Line.RBT_10755" phases=2 bus1="UC10755.3.1.4" bus2="BT73851.3.1.4" linecode="93_3" length=0.02400 units=km
New "Line.RBT_10807" phases=1 bus1="UC10807.1.4" bus2="BT74191.1.4" linecode="92_2" length=0.02300 units=km
New "Line.RBT_6042" phases=3 bus1="UC6042.1.2.3.4" bus2="BT8411.1.2.3.4" linecode="86_4" length=0.01500 units=km
New "Line.RBT_6314" phases=2 bus1="UC6314.2.3.4" bus2="ET1_77.2.3.4" linecode="95_3" length=0.00850 units=km
New "Line.RBT_5847" phases=1 bus1="UC5847.2.4" bus2="BT18401.2.4" linecode="92_2" length=0.02000 units=km
New "Line.RBT_8725" phases=1 bus1="UC8725.1.4" bus2="BT10161.1.4" linecode="92_2" length=0.00600 units=km
New "Line.RBT_9515" phases=3 bus1="UC9515.1.2.3.4" bus2="BT13791.1.2.3.4" linecode="85_4" length=0.01200 units=km
New "Line.RBT_9542" phases=1 bus1="UC9542.1.4" bus2="BT7711.1.4" linecode="92_2" length=0.01300 units=km
New "Line.RBT_10228" phases=1 bus1="UC10228.2.4" bus2="BT68552.2.4" linecode="92_2" length=0.02100 units=km
New "Line.RBT_9985" phases=1 bus1="UC9985.2.4" bus2="BT69201.2.4" linecode="92_2" length=0.01600 units=km
New "Line.RBT_10025" phases=3 bus1="UC10025.1.2.3.4" bus2="BT72592.1.2.3.4" linecode="86_4" length=0.01400 units=km
New "Line.RBT_10159" phases=2 bus1="UC10159.1.2.4" bus2="BT18761.1.2.4" linecode="93_3" length=0.01500 units=km
New "Line.RBT_10515" phases=1 bus1="UC10515.1.4" bus2="BT74161.1.4" linecode="92_2" length=0.01050 units=km
New "Line.RBT_10745" phases=1 bus1="UC10745.1.4" bus2="BT72381.1.4" linecode="92_2" length=0.01400 units=km
New "Line.RBT_1012" phases=1 bus1="UC1012.3.4" bus2="ET1_132.3.4" linecode="102_2" length=0.01200 units=km
New "Line.RBT_9914" phases=2 bus1="UC9914.1.2.4" bus2="BT17191.1.2.4" linecode="93_3" length=0.01300 units=km
New "Line.RBT_2934" phases=1 bus1="UC2934.1.4" bus2="BT11251.1.4" linecode="102_2" length=0.01350 units=km
New "Line.RBT_10209" phases=1 bus1="UC10209.1.4" bus2="BT12921.1.4" linecode="92_2" length=0.02000 units=km
New "Line.RBT_10207" phases=3 bus1="UC10207.1.2.3.4" bus2="ET1_139.1.2.3.4" linecode="100_4" length=0.02500 units=km
New "Line.RBT_8744" phases=1 bus1="UC8744.3.4" bus2="BT78901.3.4" linecode="92_2" length=0.00700 units=km
New "Line.RBT_5600" phases=1 bus1="UC5600.3.4" bus2="BT27791.3.4" linecode="92_2" length=0.01800 units=km
New "Line.RBT_2404" phases=1 bus1="UC2404.3.4" bus2="BT5602.3.4" linecode="102_2" length=0.00900 units=km
New "Line.RBT_9796" phases=1 bus1="UC9796.1.4" bus2="BT78931.1.4" linecode="92_2" length=0.01000 units=km
New "Line.RBT_9983" phases=3 bus1="UC9983.1.2.3.4" bus2="BT7681.1.2.3.4" linecode="86_4" length=0.01900 units=km
New "Line.RBT_10030" phases=3 bus1="UC10030.1.2.3.4" bus2="BT17281.1.2.3.4" linecode="86_4" length=0.01400 units=km
New "Line.RBT_10038" phases=3 bus1="UC10038.1.2.3.4" bus2="BT11682.1.2.3.4" linecode="86_4" length=0.02000 units=km
New "Line.RBT_10011" phases=3 bus1="UC10011.1.2.3.4" bus2="BT7811.1.2.3.4" linecode="86_4" length=0.01900 units=km
New "Line.RBT_10040" phases=3 bus1="UC10040.1.2.3.4" bus2="BT6751.1.2.3.4" linecode="86_4" length=0.01900 units=km
New "Line.RBT_9999" phases=2 bus1="UC9999.2.3.4" bus2="BT68701.2.3.4" linecode="93_3" length=0.01500 units=km
New "Line.RBT_9931" phases=1 bus1="UC9931.1.4" bus2="BT5781.1.4" linecode="92_2" length=0.00300 units=km
New "Line.RBT_10749" phases=1 bus1="UC10749.2.4" bus2="BT73871.2.4" linecode="92_2" length=0.01000 units=km
New "Line.RBT_10534" phases=1 bus1="UC10534.3.4" bus2="BT10691.3.4" linecode="92_2" length=0.02500 units=km
New "Line.RBT_10241" phases=1 bus1="UC10241.1.4" bus2="BT80671.1.4" linecode="92_2" length=0.02200 units=km
New "Line.RBT_10699" phases=2 bus1="UC10699.2.3.4" bus2="BT18471.2.3.4" linecode="93_3" length=0.00500 units=km
New "Line.RBT_10752" phases=2 bus1="UC10752.3.1.4" bus2="BT73861.3.1.4" linecode="93_3" length=0.01600 units=km
New "Line.RBT_10843" phases=1 bus1="UC10843.1.4" bus2="BT74171.1.4" linecode="92_2" length=0.02450 units=km
New "Line.RBT_9895" phases=2 bus1="UC9895.2.3.4" bus2="BT2801.2.3.4" linecode="93_3" length=0.02350 units=km
New "Line.RBT_10675" phases=1 bus1="UC10675.3.4" bus2="BT74351.3.4" linecode="92_2" length=0.01100 units=km
New "Line.RBT_2032" phases=2 bus1="UC2032.1.2.4" bus2="BT27501.1.2.4" linecode="93_3" length=0.01500 units=km
New "Line.RBT_9615" phases=2 bus1="UC9615.3.1.4" bus2="BT67051.3.1.4" linecode="93_3" length=0.02400 units=km
New "Line.RBT_10773" phases=1 bus1="UC10773.1.4" bus2="BT74281.1.4" linecode="92_2" length=0.02000 units=km
New "Line.RBT_9670" phases=1 bus1="UC9670.2.4" bus2="BT4751.2.4" linecode="92_2" length=0.02100 units=km
New "Line.RBT_660" phases=1 bus1="UC660.3.4" bus2="BT801.3.4" linecode="87_2" length=0.01150 units=km
New "Line.RBT_9798" phases=1 bus1="UC9798.1.4" bus2="BT72371.1.4" linecode="92_2" length=0.01500 units=km
New "Line.RBT_10713" phases=1 bus1="UC10713.3.4" bus2="BT74361.3.4" linecode="92_2" length=0.01900 units=km
New "Line.RBT_7593" phases=3 bus1="UC7593.1.2.3.4" bus2="ET1_47.1.2.3.4" linecode="86_4" length=0.01300 units=km
New "Line.RBT_2946" phases=1 bus1="UC2946.3.4" bus2="BT27631.3.4" linecode="92_2" length=0.00650 units=km
New "Line.RBT_9693" phases=1 bus1="UC9693.2.4" bus2="BT16261.2.4" linecode="92_2" length=0.00400 units=km
New "Line.RBT_9705" phases=1 bus1="UC9705.2.4" bus2="BT11611.2.4" linecode="92_2" length=0.00400 units=km
New "Line.RBT_9710" phases=2 bus1="UC9710.3.1.4" bus2="BT12591.3.1.4" linecode="93_3" length=0.01000 units=km
New "Line.RBT_9723" phases=2 bus1="UC9723.1.2.4" bus2="BT5611.1.2.4" linecode="93_3" length=0.01000 units=km
New "Line.RBT_9938" phases=2 bus1="UC9938.1.2.4" bus2="BT10581.1.2.4" linecode="93_3" length=0.00200 units=km
New "Line.RBT_5532" phases=1 bus1="UC5532.1.4" bus2="BT27921.1.4" linecode="102_2" length=0.01850 units=km
New "Line.RBT_8250" phases=3 bus1="UC8250.1.2.3.4" bus2="BT361.1.2.3.4" linecode="94_4" length=0.01400 units=km
New "Line.RBT_2570" phases=3 bus1="UC2570.1.2.3.4" bus2="BT2941.1.2.3.4" linecode="86_4" length=0.00800 units=km
New "Line.RBT_1267" phases=3 bus1="UC1267.1.2.3.4" bus2="ET1_24.1.2.3.4" linecode="94_4" length=0.01000 units=km
New "Line.RBT_583" phases=1 bus1="UC583.2.4" bus2="BT14211.2.4" linecode="102_2" length=0.01050 units=km
New "Line.RBT_9060" phases=1 bus1="UC9060.3.4" bus2="BT1141.3.4" linecode="102_2" length=0.01150 units=km
New "Line.RBT_8668" phases=2 bus1="UC8668.1.2.4" bus2="BT9371.1.2.4" linecode="93_3" length=0.02200 units=km
New "Line.RBT_9052" phases=1 bus1="UC9052.1.4" bus2="BT72271.1.4" linecode="92_2" length=0.01600 units=km
New "Line.RBT_9062" phases=1 bus1="UC9062.1.4" bus2="BT5181.1.4" linecode="92_2" length=0.01500 units=km
New "Line.RBT_9027" phases=1 bus1="UC9027.3.4" bus2="BT16231.3.4" linecode="92_2" length=0.01050 units=km
New "Line.RBT_9057" phases=1 bus1="UC9057.1.4" bus2="BT14671.1.4" linecode="92_2" length=0.01650 units=km
New "Line.RBT_1494" phases=1 bus1="UC1494.2.4" bus2="BT17541.2.4" linecode="102_2" length=0.01050 units=km
New "Line.RBT_10532" phases=1 bus1="UC10532.3.4" bus2="BT15881.3.4" linecode="92_2" length=0.00650 units=km
New "Line.RBT_9733" phases=3 bus1="UC9733.1.2.3.4" bus2="BT28401.1.2.3.4" linecode="86_4" length=0.01800 units=km
New "Line.RBT_9738" phases=2 bus1="UC9738.3.1.4" bus2="ET1_153.3.1.4" linecode="93_3" length=0.01500 units=km
New "Line.RBT_10756" phases=2 bus1="UC10756.2.3.4" bus2="BT73881.2.3.4" linecode="93_3" length=0.02100 units=km