New "Transformer.TRF_1_165" phases=3 windings=2 buses=["86851.1.2.3" "ET1_165.1.2.3.4"] bus3 = 0conns=[Delta Wye]kvs=[13.8 0.38] taps=[1.045 1.045] kvas=[45.0 45.0] %loadloss=1.853 %noloadloss=0.478
New "Reactor.TRF_1_165 phases=1 bus1="ET1_165.4" R=15 X=0 basefreq=60

New "Transformer.TRF_1_14" phases=3 windings=2 buses=["13511.1.2.3" "ET1_14.1.2.3.4"] bus3 = 0conns=[Delta Wye]kvs=[13.8 0.38] taps=[1.045 1.045] kvas=[75.0 75.0] %loadloss=1.769 %noloadloss=0.445
New "Reactor.TRF_1_14 phases=1 bus1="ET1_14.4" R=15 X=0 basefreq=60

New "Transformer.TRF_1_206" phases=3 windings=2 buses=["83921.1.2.3" "ET1_206.1.2.3.4"] bus3 = 0conns=[Delta Wye]kvs=[13.8 0.38] taps=[1.045 1.045] kvas=[75.0 75.0] %loadloss=1.769 %noloadloss=0.445
New "Reactor.TRF_1_206 phases=1 bus1="ET1_206.4" R=15 X=0 basefreq=60

New "Transformer.TRF_1_207" phases=3 windings=2 buses=["83661.1.2.3" "ET1_207.1.2.3.4"] bus3 = 0conns=[Delta Wye]kvs=[13.8 0.38] taps=[1.045 1.045] kvas=[225.0 225.0] %loadloss=1.200 %noloadloss=0.340
New "Reactor.TRF_1_207 phases=1 bus1="ET1_207.4" R=15 X=0 basefreq=60

New "Transformer.TRF_1_22" phases=3 windings=2 buses=["841.1.2.3" "ET1_22.1.2.3.4"] bus3 = 0conns=[Delta Wye]kvs=[13.8 0.38] taps=[1.045 1.045] kvas=[150.0 150.0] %loadloss=1.249 %noloadloss=0.308
New "Reactor.TRF_1_22 phases=1 bus1="ET1_22.4" R=15 X=0 basefreq=60

New "Transformer.TRF_1_208" phases=3 windings=2 buses=["83981.1.2.3" "ET1_208.1.2.3.4"] bus3 = 0conns=[Delta Wye]kvs=[13.8 0.38] taps=[1.045 1.045] kvas=[112.5 112.5] %loadloss=1.876 %noloadloss=0.382
New "Reactor.TRF_1_208 phases=1 bus1="ET1_208.4" R=15 X=0 basefreq=60

New "Transformer.TRF_1_101" phases=3 windings=2 buses=["17321.1.2.3" "ET1_101.1.2.3.4"] bus3 = 0conns=[Delta Wye]kvs=[13.8 0.38] taps=[1.045 1.045] kvas=[112.5 112.5] %loadloss=1.876 %noloadloss=0.382
New "Reactor.TRF_1_101 phases=1 bus1="ET1_101.4" R=15 X=0 basefreq=60

New "Transformer.TRF_1_209" phases=3 windings=2 buses=["84261.1.2.3" "ET1_209.1.2.3.4"] bus3 = 0conns=[Delta Wye]kvs=[13.8 0.38] taps=[1.045 1.045] kvas=[75.0 75.0] %loadloss=1.769 %noloadloss=0.445
New "Reactor.TRF_1_209 phases=1 bus1="ET1_209.4" R=15 X=0 basefreq=60

New "Transformer.TRF_1_13" phases=3 windings=2 buses=["27801.1.2.3" "ET1_13.1.2.3.4"] bus3 = 0conns=[Delta Wye]kvs=[13.8 0.38] taps=[1.045 1.045] kvas=[150.0 150.0] %loadloss=1.249 %noloadloss=0.308
New "Reactor.TRF_1_13 phases=1 bus1="ET1_13.4" R=15 X=0 basefreq=60

New "Transformer.TRF_1_212" phases=3 windings=2 buses=["84471.1.2.3" "ET1_212.1.2.3.4"] bus3 = 0conns=[Delta Wye]kvs=[13.8 0.38] taps=[1.045 1.045] kvas=[225.0 225.0] %loadloss=1.200 %noloadloss=0.340
New "Reactor.TRF_1_212 phases=1 bus1="ET1_212.4" R=15 X=0 basefreq=60

New "Transformer.TRF_1_211" phases=3 windings=2 buses=["84911.1.2.3" "ET1_211.1.2.3.4"] bus3 = 0conns=[Delta Wye]kvs=[13.8 0.38] taps=[1.045 1.045] kvas=[75.0 75.0] %loadloss=1.769 %noloadloss=0.445
New "Reactor.TRF_1_211 phases=1 bus1="ET1_211.4" R=15 X=0 basefreq=60

New "Transformer.TRF_1_124" phases=3 windings=2 buses=["85143.1.2.3" "ET1_124.1.2.3.4"] bus3 = 0conns=[Delta Wye]kvs=[13.8 0.38] taps=[1.045 1.045] kvas=[150.0 150.0] %loadloss=1.249 %noloadloss=0.308
New "Reactor.TRF_1_124 phases=1 bus1="ET1_124.4" R=15 X=0 basefreq=60

New "Transformer.TRF_1_81" phases=3 windings=2 buses=["17141.1.2.3" "ET1_81.1.2.3.4"] bus3 = 0conns=[Delta Wye]kvs=[13.8 0.38] taps=[1.045 1.045] kvas=[75.0 75.0] %loadloss=1.769 %noloadloss=0.445
New "Reactor.TRF_1_81 phases=1 bus1="ET1_81.4" R=15 X=0 basefreq=60

New "Transformer.TRF_1_155" phases=3 windings=2 buses=["73751.1.2.3" "ET1_155.1.2.3.4"] bus3 = 0conns=[Delta Wye]kvs=[13.8 0.38] taps=[1.045 1.045] kvas=[112.5 112.5] %loadloss=1.876 %noloadloss=0.382
New "Reactor.TRF_1_155 phases=1 bus1="ET1_155.4" R=15 X=0 basefreq=60

New "Transformer.TRF_1_213" phases=3 windings=2 buses=["24891.1.2.3" "ET1_213.1.2.3.4"] bus3 = 0conns=[Delta Wye]kvs=[13.8 0.38] taps=[1.045 1.045] kvas=[150.0 150.0] %loadloss=1.249 %noloadloss=0.308
New "Reactor.TRF_1_213 phases=1 bus1="ET1_213.4" R=15 X=0 basefreq=60

New "Transformer.TRF_1_214" phases=3 windings=2 buses=["86301.1.2.3" "ET1_214.1.2.3.4"] bus3 = 0conns=[Delta Wye]kvs=[13.8 0.38] taps=[1.045 1.045] kvas=[75.0 75.0] %loadloss=1.769 %noloadloss=0.445
New "Reactor.TRF_1_214 phases=1 bus1="ET1_214.4" R=15 X=0 basefreq=60

New "Transformer.TRF_1_107" phases=3 windings=2 buses=["11441.1.2.3" "ET1_107.1.2.3.4"] bus3 = 0conns=[Delta Wye]kvs=[13.8 0.38] taps=[1.045 1.045] kvas=[150.0 150.0] %loadloss=1.249 %noloadloss=0.308
New "Reactor.TRF_1_107 phases=1 bus1="ET1_107.4" R=15 X=0 basefreq=60

New "Transformer.TRF_1_46" phases=3 windings=2 buses=["2561.1.2.3" "ET1_46.1.2.3.4"] bus3 = 0conns=[Delta Wye]kvs=[13.8 0.38] taps=[1.045 1.045] kvas=[75.0 75.0] %loadloss=1.769 %noloadloss=0.445
New "Reactor.TRF_1_46 phases=1 bus1="ET1_46.4" R=15 X=0 basefreq=60

New "Transformer.TRF_1_70" phases=3 windings=2 buses=["14551.1.2.3" "ET1_70.1.2.3.4"] bus3 = 0conns=[Delta Wye]kvs=[13.8 0.38] taps=[1.045 1.045] kvas=[150.0 150.0] %loadloss=1.249 %noloadloss=0.308
New "Reactor.TRF_1_70 phases=1 bus1="ET1_70.4" R=15 X=0 basefreq=60

New "Transformer.TRF_1_41" phases=3 windings=2 buses=["2671.1.2.3" "ET1_41.1.2.3.4"] bus3 = 0conns=[Delta Wye]kvs=[13.8 0.38] taps=[1.045 1.045] kvas=[112.5 112.5] %loadloss=1.876 %noloadloss=0.382
New "Reactor.TRF_1_41 phases=1 bus1="ET1_41.4" R=15 X=0 basefreq=60

New "Transformer.TRF_1_59" phases=3 windings=2 buses=["29411.1.2.3" "ET1_59.1.2.3.4"] bus3 = 0conns=[Delta Wye]kvs=[13.8 0.38] taps=[1.045 1.045] kvas=[150.0 150.0] %loadloss=1.249 %noloadloss=0.308
New "Reactor.TRF_1_59 phases=1 bus1="ET1_59.4" R=15 X=0 basefreq=60

New "Transformer.TRF_1_171" phases=3 windings=2 buses=["24421.1.2.3" "ET1_171.1.2.3.4"] bus3 = 0conns=[Delta Wye]kvs=[13.8 0.38] taps=[1.045 1.045] kvas=[45.0 45.0] %loadloss=1.853 %noloadloss=0.478
New "Reactor.TRF_1_171 phases=1 bus1="ET1_171.4" R=15 X=0 basefreq=60

New "Transformer.TRF_1_144" phases=3 windings=2 buses=["68881.1.2.3" "ET1_144.1.2.3.4"] bus3 = 0conns=[Delta Wye]kvs=[13.8 0.38] taps=[1.045 1.045] kvas=[45.0 45.0] %loadloss=1.853 %noloadloss=0.478
New "Reactor.TRF_1_144 phases=1 bus1="ET1_144.4" R=15 X=0 basefreq=60

New "Transformer.TRF_1_156" phases=3 windings=2 buses=["73791.1.2.3" "ET1_156.1.2.3.4"] bus3 = 0conns=[Delta Wye]kvs=[13.8 0.38] taps=[1.045 1.045] kvas=[112.5 112.5] %loadloss=1.876 %noloadloss=0.382
New "Reactor.TRF_1_156 phases=1 bus1="ET1_156.4" R=15 X=0 basefreq=60

New "Transformer.TRF_1_133" phases=3 windings=2 buses=["21211.1.2.3" "ET1_133.1.2.3.4"] bus3 = 0conns=[Delta Wye]kvs=[13.8 0.38] taps=[1.045 1.045] kvas=[150.0 150.0] %loadloss=1.249 %noloadloss=0.308
New "Reactor.TRF_1_133 phases=1 bus1="ET1_133.4" R=15 X=0 basefreq=60

New "Transformer.TRF_1_139" phases=3 windings=2 buses=["18621.1.2.3" "ET1_139.1.2.3.4"] bus3 = 0conns=[Delta Wye]kvs=[13.8 0.38] taps=[1.045 1.045] kvas=[75.0 75.0] %loadloss=1.769 %noloadloss=0.445
New "Reactor.TRF_1_139 phases=1 bus1="ET1_139.4" R=15 X=0 basefreq=60

New "Transformer.TRF_1_104" phases=3 windings=2 buses=["9191.1.2.3" "ET1_104.1.2.3.4"] bus3 = 0conns=[Delta Wye]kvs=[13.8 0.38] taps=[1.045 1.045] kvas=[112.5 112.5] %loadloss=1.876 %noloadloss=0.382
New "Reactor.TRF_1_104 phases=1 bus1="ET1_104.4" R=15 X=0 basefreq=60

New "Transformer.TRF_1_61" phases=3 windings=2 buses=["6261.1.2.3" "ET1_61.1.2.3.4"] bus3 = 0conns=[Delta Wye]kvs=[13.8 0.38] taps=[1.045 1.045] kvas=[150.0 150.0] %loadloss=1.249 %noloadloss=0.308
New "Reactor.TRF_1_61 phases=1 bus1="ET1_61.4" R=15 X=0 basefreq=60

New "Transformer.TRF_1_177" phases=3 windings=2 buses=["24641.1.2.3" "ET1_177.1.2.3.4"] bus3 = 0conns=[Delta Wye]kvs=[13.8 0.38] taps=[1.045 1.045] kvas=[150.0 150.0] %loadloss=1.249 %noloadloss=0.308
New "Reactor.TRF_1_177 phases=1 bus1="ET1_177.4" R=15 X=0 basefreq=60

New "Transformer.TRF_1_179" phases=3 windings=2 buses=["76981.1.2.3" "ET1_179.1.2.3.4"] bus3 = 0conns=[Delta Wye]kvs=[13.8 0.38] taps=[1.045 1.045] kvas=[75.0 75.0] %loadloss=1.769 %noloadloss=0.445
New "Reactor.TRF_1_179 phases=1 bus1="ET1_179.4" R=15 X=0 basefreq=60

New "Transformer.TRF_1_181" phases=3 windings=2 buses=["77631.1.2.3" "ET1_181.1.2.3.4"] bus3 = 0conns=[Delta Wye]kvs=[13.8 0.38] taps=[1.045 1.045] kvas=[150.0 150.0] %loadloss=1.249 %noloadloss=0.308
New "Reactor.TRF_1_181 phases=1 bus1="ET1_181.4" R=15 X=0 basefreq=60

New "Transformer.TRF_1_183" phases=3 windings=2 buses=["77641.1.2.3" "ET1_183.1.2.3.4"] bus3 = 0conns=[Delta Wye]kvs=[13.8 0.38] taps=[1.045 1.045] kvas=[112.5 112.5] %loadloss=1.876 %noloadloss=0.382
New "Reactor.TRF_1_183 phases=1 bus1="ET1_183.4" R=15 X=0 basefreq=60

New "Transformer.TRF_1_11" phases=3 windings=2 buses=["21931.1.2.3" "ET1_11.1.2.3.4"] bus3 = 0conns=[Delta Wye]kvs=[13.8 0.38] taps=[1.045 1.045] kvas=[150.0 150.0] %loadloss=1.249 %noloadloss=0.308
New "Reactor.TRF_1_11 phases=1 bus1="ET1_11.4" R=15 X=0 basefreq=60

New "Transformer.TRF_1_191" phases=3 windings=2 buses=["80301.1.2.3" "ET1_191.1.2.3.4"] bus3 = 0conns=[Delta Wye]kvs=[13.8 0.38] taps=[1.045 1.045] kvas=[75.0 75.0] %loadloss=1.769 %noloadloss=0.445
New "Reactor.TRF_1_191 phases=1 bus1="ET1_191.4" R=15 X=0 basefreq=60

New "Transformer.TRF_1_193" phases=3 windings=2 buses=["81081.1.2.3" "ET1_193.1.2.3.4"] bus3 = 0conns=[Delta Wye]kvs=[13.8 0.38] taps=[1.045 1.045] kvas=[150.0 150.0] %loadloss=1.249 %noloadloss=0.308
New "Reactor.TRF_1_193 phases=1 bus1="ET1_193.4" R=15 X=0 basefreq=60

New "Transformer.TRF_1_195" phases=3 windings=2 buses=["81581.1.2.3" "ET1_195.1.2.3.4"] bus3 = 0conns=[Delta Wye]kvs=[13.8 0.38] taps=[1.045 1.045] kvas=[75.0 75.0] %loadloss=1.769 %noloadloss=0.445
New "Reactor.TRF_1_195 phases=1 bus1="ET1_195.4" R=15 X=0 basefreq=60

New "Transformer.TRF_1_196" phases=3 windings=2 buses=["81621.1.2.3" "ET1_196.1.2.3.4"] bus3 = 0conns=[Delta Wye]kvs=[13.8 0.38] taps=[1.045 1.045] kvas=[75.0 75.0] %loadloss=1.769 %noloadloss=0.445
New "Reactor.TRF_1_196 phases=1 bus1="ET1_196.4" R=15 X=0 basefreq=60

New "Transformer.TRF_1_197" phases=3 windings=2 buses=["11671.1.2.3" "ET1_197.1.2.3.4"] bus3 = 0conns=[Delta Wye]kvs=[13.8 0.38] taps=[1.045 1.045] kvas=[150.0 150.0] %loadloss=1.249 %noloadloss=0.308
New "Reactor.TRF_1_197 phases=1 bus1="ET1_197.4" R=15 X=0 basefreq=60

New "Transformer.TRF_1_198" phases=3 windings=2 buses=["82181.1.2.3" "ET1_198.1.2.3.4"] bus3 = 0conns=[Delta Wye]kvs=[13.8 0.38] taps=[1.045 1.045] kvas=[15.0 15.0] %loadloss=2.467 %noloadloss=0.733
New "Reactor.TRF_1_198 phases=1 bus1="ET1_198.4" R=15 X=0 basefreq=60

New "Transformer.TRF_1_199" phases=3 windings=2 buses=["81981.1.2.3" "ET1_199.1.2.3.4"] bus3 = 0conns=[Delta Wye]kvs=[13.8 0.38] taps=[1.045 1.045] kvas=[75.0 75.0] %loadloss=1.769 %noloadloss=0.445
New "Reactor.TRF_1_199 phases=1 bus1="ET1_199.4" R=15 X=0 basefreq=60

New "Transformer.TRF_1_79" phases=3 windings=2 buses=["72671.1.2.3" "ET1_79.1.2.3.4"] bus3 = 0conns=[Delta Wye]kvs=[13.8 0.38] taps=[1.045 1.045] kvas=[112.5 112.5] %loadloss=1.876 %noloadloss=0.382
New "Reactor.TRF_1_79 phases=1 bus1="ET1_79.4" R=15 X=0 basefreq=60

New "Transformer.TRF_1_95" phases=3 windings=2 buses=["6951.1.2.3" "ET1_95.1.2.3.4"] bus3 = 0conns=[Delta Wye]kvs=[13.8 0.38] taps=[1.045 1.045] kvas=[75.0 75.0] %loadloss=1.769 %noloadloss=0.445
New "Reactor.TRF_1_95 phases=1 bus1="ET1_95.4" R=15 X=0 basefreq=60

New "Transformer.TRF_1_12" phases=3 windings=2 buses=["22161.1.2.3" "ET1_12.1.2.3.4"] bus3 = 0conns=[Delta Wye]kvs=[13.8 0.38] taps=[1.045 1.045] kvas=[112.5 112.5] %loadloss=1.876 %noloadloss=0.382
New "Reactor.TRF_1_12 phases=1 bus1="ET1_12.4" R=15 X=0 basefreq=60

New "Transformer.TRF_1_160" phases=3 windings=2 buses=["73601.1.2.3" "ET1_160.1.2.3.4"] bus3 = 0conns=[Delta Wye]kvs=[13.8 0.38] taps=[1.045 1.045] kvas=[75.0 75.0] %loadloss=1.769 %noloadloss=0.445
New "Reactor.TRF_1_160 phases=1 bus1="ET1_160.4" R=15 X=0 basefreq=60

New "Transformer.TRF_1_157" phases=3 windings=2 buses=["3861.1.2.3" "ET1_157.1.2.3.4"] bus3 = 0conns=[Delta Wye]kvs=[13.8 0.38] taps=[1.045 1.045] kvas=[150.0 150.0] %loadloss=1.249 %noloadloss=0.308
New "Reactor.TRF_1_157 phases=1 bus1="ET1_157.4" R=15 X=0 basefreq=60

New "Transformer.TRF_1_164" phases=3 windings=2 buses=["10561.1.2.3" "ET1_164.1.2.3.4"] bus3 = 0conns=[Delta Wye]kvs=[13.8 0.38] taps=[1.045 1.045] kvas=[45.0 45.0] %loadloss=1.853 %noloadloss=0.478
New "Reactor.TRF_1_164 phases=1 bus1="ET1_164.4" R=15 X=0 basefreq=60

New "Transformer.TRF_1_166" phases=3 windings=2 buses=["75251.1.2.3" "ET1_166.1.2.3.4"] bus3 = 0conns=[Delta Wye]kvs=[13.8 0.38] taps=[1.045 1.045] kvas=[150.0 150.0] %loadloss=1.249 %noloadloss=0.308
New "Reactor.TRF_1_166 phases=1 bus1="ET1_166.4" R=15 X=0 basefreq=60

New "Transformer.TRF_1_167" phases=3 windings=2 buses=["75381.1.2.3" "ET1_167.1.2.3.4"] bus3 = 0conns=[Delta Wye]kvs=[13.8 0.38] taps=[1.045 1.045] kvas=[30.0 30.0] %loadloss=2.160 %noloadloss=1.200
New "Reactor.TRF_1_167 phases=1 bus1="ET1_167.4" R=15 X=0 basefreq=60

New "Transformer.TRF_1_159" phases=3 windings=2 buses=["74791.1.2.3" "ET1_159R.1.2.3.4"] bus3 = 0conns=[Delta Wye]kvs=[13.8 0.38] taps=[1.045 1.045] kvas=[225.0 225.0] %loadloss=1.200 %noloadloss=0.340
New "Reactor.TRF_1_159 phases=1 bus1="ET1_159R.4" R=15 X=0 basefreq=60

New "Transformer.TRF_1_158" phases=3 windings=2 buses=["27941.1.2.3" "ET1_158.1.2.3.4"] bus3 = 0conns=[Delta Wye]kvs=[13.8 0.38] taps=[1.045 1.045] kvas=[112.5 112.5] %loadloss=1.876 %noloadloss=0.382
New "Reactor.TRF_1_158 phases=1 bus1="ET1_158.4" R=15 X=0 basefreq=60

New "Transformer.TRF_1_168" phases=3 windings=2 buses=["75681.1.2.3" "ET1_168.1.2.3.4"] bus3 = 0conns=[Delta Wye]kvs=[13.8 0.38] taps=[1.045 1.045] kvas=[75.0 75.0] %loadloss=1.769 %noloadloss=0.445
New "Reactor.TRF_1_168 phases=1 bus1="ET1_168.4" R=15 X=0 basefreq=60

New "Transformer.TRF_1_175" phases=3 windings=2 buses=["75941.1.2.3" "ET1_175.1.2.3.4"] bus3 = 0conns=[Delta Wye]kvs=[13.8 0.38] taps=[1.045 1.045] kvas=[75.0 75.0] %loadloss=1.769 %noloadloss=0.445
New "Reactor.TRF_1_175 phases=1 bus1="ET1_175.4" R=15 X=0 basefreq=60

New "Transformer.TRF_1_176" phases=3 windings=2 buses=["76401.1.2.3" "ET1_176.1.2.3.4"] bus3 = 0conns=[Delta Wye]kvs=[13.8 0.38] taps=[1.045 1.045] kvas=[75.0 75.0] %loadloss=1.769 %noloadloss=0.445
New "Reactor.TRF_1_176 phases=1 bus1="ET1_176.4" R=15 X=0 basefreq=60

New "Transformer.TRF_1_178" phases=3 windings=2 buses=["21161.1.2.3" "ET1_178.1.2.3.4"] bus3 = 0conns=[Delta Wye]kvs=[13.8 0.38] taps=[1.045 1.045] kvas=[150.0 150.0] %loadloss=1.249 %noloadloss=0.308
New "Reactor.TRF_1_178 phases=1 bus1="ET1_178.4" R=15 X=0 basefreq=60

New "Transformer.TRF_1_180" phases=3 windings=2 buses=["14711.1.2.3" "ET1_180.1.2.3.4"] bus3 = 0conns=[Delta Wye]kvs=[13.8 0.38] taps=[1.045 1.045] kvas=[112.5 112.5] %loadloss=1.876 %noloadloss=0.382
New "Reactor.TRF_1_180 phases=1 bus1="ET1_180.4" R=15 X=0 basefreq=60

New "Transformer.TRF_1_141" phases=3 windings=2 buses=["68041.1.2.3" "ET1_141.1.2.3.4"] bus3 = 0conns=[Delta Wye]kvs=[13.8 0.38] taps=[1.045 1.045] kvas=[150.0 150.0] %loadloss=1.249 %noloadloss=0.308
New "Reactor.TRF_1_141 phases=1 bus1="ET1_141.4" R=15 X=0 basefreq=60

New "Transformer.TRF_1_24" phases=3 windings=2 buses=["14151.1.2.3" "ET1_24.1.2.3.4"] bus3 = 0conns=[Delta Wye]kvs=[13.8 0.38] taps=[1.045 1.045] kvas=[112.5 112.5] %loadloss=1.876 %noloadloss=0.382
New "Reactor.TRF_1_24 phases=1 bus1="ET1_24.4" R=15 X=0 basefreq=60

New "Transformer.TRF_1_25" phases=3 windings=2 buses=["14181.1.2.3" "ET1_25.1.2.3.4"] bus3 = 0conns=[Delta Wye]kvs=[13.8 0.38] taps=[1.045 1.045] kvas=[112.5 112.5] %loadloss=1.876 %noloadloss=0.382
New "Reactor.TRF_1_25 phases=1 bus1="ET1_25.4" R=15 X=0 basefreq=60

New "Transformer.TRF_1_85" phases=3 windings=2 buses=["15921.1.2.3" "ET1_85.1.2.3.4"] bus3 = 0conns=[Delta Wye]kvs=[13.8 0.38] taps=[1.045 1.045] kvas=[45.0 45.0] %loadloss=1.853 %noloadloss=0.478
New "Reactor.TRF_1_85 phases=1 bus1="ET1_85.4" R=15 X=0 basefreq=60

New "Transformer.TRF_1_45" phases=3 windings=2 buses=["5401.1.2.3" "ET1_45.1.2.3.4"] bus3 = 0conns=[Delta Wye]kvs=[13.8 0.38] taps=[1.045 1.045] kvas=[75.0 75.0] %loadloss=1.769 %noloadloss=0.445
New "Reactor.TRF_1_45 phases=1 bus1="ET1_45.4" R=15 X=0 basefreq=60

New "Transformer.TRF_1_91" phases=3 windings=2 buses=["391.1.2.3" "ET1_91.1.2.3.4"] bus3 = 0conns=[Delta Wye]kvs=[7.96 0.44] taps=[1.045 1.045] kvas=[45.0 45.0] %loadloss=1.853 %noloadloss=0.478
New "Reactor.TRF_1_91 phases=1 bus1="ET1_91.4" R=15 X=0 basefreq=60

New "Transformer.TRF_1_140" phases=3 windings=2 buses=["23481.1.2.3" "ET1_140.1.2.3.4"] bus3 = 0conns=[Delta Wye]kvs=[13.8 0.38] taps=[1.045 1.045] kvas=[150.0 150.0] %loadloss=1.249 %noloadloss=0.308
New "Reactor.TRF_1_140 phases=1 bus1="ET1_140.4" R=15 X=0 basefreq=60

New "Transformer.TRF_1_88" phases=3 windings=2 buses=["68061.1.2.3" "ET1_88.1.2.3.4"] bus3 = 0conns=[Delta Wye]kvs=[13.8 0.38] taps=[1.045 1.045] kvas=[500.0 500.0] %loadloss=1.424 %noloadloss=0.292
New "Reactor.TRF_1_88 phases=1 bus1="ET1_88.4" R=15 X=0 basefreq=60

New "Transformer.TRF_1_36" phases=3 windings=2 buses=["12671.1.2.3" "ET1_36.1.2.3.4"] bus3 = 0conns=[Delta Wye]kvs=[13.8 0.38] taps=[1.045 1.045] kvas=[75.0 75.0] %loadloss=1.769 %noloadloss=0.445
New "Reactor.TRF_1_36 phases=1 bus1="ET1_36.4" R=15 X=0 basefreq=60

New "Transformer.TRF_1_128" phases=3 windings=2 buses=["64371.1.2.3" "ET1_128.1.2.3.4"] bus3 = 0conns=[Delta Wye]kvs=[13.8 0.38] taps=[1.045 1.045] kvas=[112.5 112.5] %loadloss=1.876 %noloadloss=0.382
New "Reactor.TRF_1_128 phases=1 bus1="ET1_128.4" R=15 X=0 basefreq=60

New "Transformer.TRF_1_129" phases=3 windings=2 buses=["27511.1.2.3" "ET1_129.1.2.3.4"] bus3 = 0conns=[Delta Wye]kvs=[13.8 0.38] taps=[1.045 1.045] kvas=[112.5 112.5] %loadloss=1.876 %noloadloss=0.382
New "Reactor.TRF_1_129 phases=1 bus1="ET1_129.4" R=15 X=0 basefreq=60

New "Transformer.TRF_1_21" phases=3 windings=2 buses=["10631.1.2.3" "ET1_21.1.2.3.4"] bus3 = 0conns=[Delta Wye]kvs=[13.8 0.38] taps=[1.045 1.045] kvas=[300.0 300.0] %loadloss=1.170 %noloadloss=0.324
New "Reactor.TRF_1_21 phases=1 bus1="ET1_21.4" R=15 X=0 basefreq=60

New "Transformer.TRF_1_58" phases=3 windings=2 buses=["16751.1.2.3" "ET1_58.1.2.3.4"] bus3 = 0conns=[Delta Wye]kvs=[13.8 0.38] taps=[1.045 1.045] kvas=[75.0 75.0] %loadloss=1.769 %noloadloss=0.445
New "Reactor.TRF_1_58 phases=1 bus1="ET1_58.4" R=15 X=0 basefreq=60

New "Transformer.TRF_1_73" phases=3 windings=2 buses=["21111.1.2.3" "ET1_73.1.2.3.4"] bus3 = 0conns=[Delta Wye]kvs=[13.8 0.38] taps=[1.045 1.045] kvas=[45.0 45.0] %loadloss=1.853 %noloadloss=0.478
New "Reactor.TRF_1_73 phases=1 bus1="ET1_73.4" R=15 X=0 basefreq=60

New "Transformer.TRF_1_57" phases=3 windings=2 buses=["13731.1.2.3" "ET1_57.1.2.3.4"] bus3 = 0conns=[Delta Wye]kvs=[13.8 0.38] taps=[1.045 1.045] kvas=[337.5 337.5] %loadloss=1.574 %noloadloss=0.363
New "Reactor.TRF_1_57 phases=1 bus1="ET1_57.4" R=15 X=0 basefreq=60

New "Transformer.TRF_1_82" phases=3 windings=2 buses=["7261.1.2.3" "ET1_82.1.2.3.4"] bus3 = 0conns=[Delta Wye]kvs=[13.8 0.38] taps=[1.045 1.045] kvas=[75.0 75.0] %loadloss=1.769 %noloadloss=0.445
New "Reactor.TRF_1_82 phases=1 bus1="ET1_82.4" R=15 X=0 basefreq=60

New "Transformer.TRF_1_64" phases=3 windings=2 buses=["20911.1.2.3" "ET1_64.1.2.3.4"] bus3 = 0conns=[Delta Wye]kvs=[13.8 0.38] taps=[1.045 1.045] kvas=[112.5 112.5] %loadloss=1.876 %noloadloss=0.382
New "Reactor.TRF_1_64 phases=1 bus1="ET1_64.4" R=15 X=0 basefreq=60

New "Transformer.TRF_1_106" phases=3 windings=2 buses=["29271.1.2.3" "ET1_106.1.2.3.4"] bus3 = 0conns=[Delta Wye]kvs=[13.8 0.38] taps=[1.045 1.045] kvas=[150.0 150.0] %loadloss=1.249 %noloadloss=0.308
New "Reactor.TRF_1_106 phases=1 bus1="ET1_106.4" R=15 X=0 basefreq=60

New "Transformer.TRF_1_109" phases=3 windings=2 buses=["23641.1.2.3" "ET1_109.1.2.3.4"] bus3 = 0conns=[Delta Wye]kvs=[13.8 0.38] taps=[1.045 1.045] kvas=[150.0 150.0] %loadloss=1.249 %noloadloss=0.308
New "Reactor.TRF_1_109 phases=1 bus1="ET1_109.4" R=15 X=0 basefreq=60

New "Transformer.TRF_1_90" phases=3 windings=2 buses=["10211.1.2.3" "ET1_90.1.2.3.4"] bus3 = 0conns=[Delta Wye]kvs=[13.8 0.38] taps=[1.045 1.045] kvas=[75.0 75.0] %loadloss=1.769 %noloadloss=0.445
New "Reactor.TRF_1_90 phases=1 bus1="ET1_90.4" R=15 X=0 basefreq=60

New "Transformer.TRF_1_75" phases=3 windings=2 buses=["8221.1.2.3" "ET1_75.1.2.3.4"] bus3 = 0conns=[Delta Wye]kvs=[13.8 0.38] taps=[1.045 1.045] kvas=[112.5 112.5] %loadloss=1.876 %noloadloss=0.382
New "Reactor.TRF_1_75 phases=1 bus1="ET1_75.4" R=15 X=0 basefreq=60

New "Transformer.TRF_1_77" phases=3 windings=2 buses=["18801.1.2.3" "ET1_77.1.2.3.4"] bus3 = 0conns=[Delta Wye]kvs=[13.8 0.38] taps=[1.045 1.045] kvas=[112.5 112.5] %loadloss=1.876 %noloadloss=0.382
New "Reactor.TRF_1_77 phases=1 bus1="ET1_77.4" R=15 X=0 basefreq=60

New "Transformer.TRF_1_27" phases=3 windings=2 buses=["14431.1.2.3" "ET1_27.1.2.3.4"] bus3 = 0conns=[Delta Wye]kvs=[13.8 0.38] taps=[1.045 1.045] kvas=[225.0 225.0] %loadloss=1.200 %noloadloss=0.340
New "Reactor.TRF_1_27 phases=1 bus1="ET1_27.4" R=15 X=0 basefreq=60

New "Transformer.TRF_1_38" phases=3 windings=2 buses=["20051.1.2.3" "ET1_38.1.2.3.4"] bus3 = 0conns=[Delta Wye]kvs=[13.8 0.38] taps=[1.045 1.045] kvas=[225.0 225.0] %loadloss=1.200 %noloadloss=0.340
New "Reactor.TRF_1_38 phases=1 bus1="ET1_38.4" R=15 X=0 basefreq=60

New "Transformer.TRF_1_10" phases=3 windings=2 buses=["24751.1.2.3" "ET1_10.1.2.3.4"] bus3 = 0conns=[Delta Wye]kvs=[13.8 0.38] taps=[1.045 1.045] kvas=[75.0 75.0] %loadloss=1.769 %noloadloss=0.445
New "Reactor.TRF_1_10 phases=1 bus1="ET1_10.4" R=15 X=0 basefreq=60

New "Transformer.TRF_1_8" phases=3 windings=2 buses=["6741.1.2.3" "ET1_8.1.2.3.4"] bus3 = 0conns=[Delta Wye]kvs=[13.8 0.38] taps=[1.045 1.045] kvas=[75.0 75.0] %loadloss=1.769 %noloadloss=0.445
New "Reactor.TRF_1_8 phases=1 bus1="ET1_8.4" R=15 X=0 basefreq=60

New "Transformer.TRF_1_65" phases=3 windings=2 buses=["23531.1.2.3" "ET1_65.1.2.3.4"] bus3 = 0conns=[Delta Wye]kvs=[13.8 0.38] taps=[1.045 1.045] kvas=[150.0 150.0] %loadloss=1.249 %noloadloss=0.308
New "Reactor.TRF_1_65 phases=1 bus1="ET1_65.4" R=15 X=0 basefreq=60

New "Transformer.TRF_1_150" phases=3 windings=2 buses=["151.1.2.3" "ET1_150.1.2.3.4"] bus3 = 0conns=[Delta Wye]kvs=[13.8 0.38] taps=[1.045 1.045] kvas=[150.0 150.0] %loadloss=1.249 %noloadloss=0.308
New "Reactor.TRF_1_150 phases=1 bus1="ET1_150.4" R=15 X=0 basefreq=60

New "Transformer.TRF_1_152" phases=3 windings=2 buses=["72421.1.2.3" "ET1_152.1.2.3.4"] bus3 = 0conns=[Delta Wye]kvs=[13.8 0.38] taps=[1.045 1.045] kvas=[112.5 112.5] %loadloss=1.876 %noloadloss=0.382
New "Reactor.TRF_1_152 phases=1 bus1="ET1_152.4" R=15 X=0 basefreq=60

New "Transformer.TRF_1_151" phases=3 windings=2 buses=["22141.1.2.3" "ET1_151.1.2.3.4"] bus3 = 0conns=[Delta Wye]kvs=[7.96 0.44] taps=[1.045 1.045] kvas=[150.0 150.0] %loadloss=1.249 %noloadloss=0.308
New "Reactor.TRF_1_151 phases=1 bus1="ET1_151.4" R=15 X=0 basefreq=60

New "Transformer.TRF_1_153" phases=3 windings=2 buses=["30191.1.2.3" "ET1_153.1.2.3.4"] bus3 = 0conns=[Delta Wye]kvs=[13.8 0.38] taps=[1.045 1.045] kvas=[75.0 75.0] %loadloss=1.769 %noloadloss=0.445
New "Reactor.TRF_1_153 phases=1 bus1="ET1_153.4" R=15 X=0 basefreq=60

New "Transformer.TRF_1_119" phases=3 windings=2 buses=["9291.1.2.3" "ET1_119.1.2.3.4"] bus3 = 0conns=[Delta Wye]kvs=[13.8 0.38] taps=[1.045 1.045] kvas=[150.0 150.0] %loadloss=1.249 %noloadloss=0.308
New "Reactor.TRF_1_119 phases=1 bus1="ET1_119.4" R=15 X=0 basefreq=60

New "Transformer.TRF_1_18" phases=3 windings=2 buses=["15201.1.2.3" "ET1_18.1.2.3.4"] bus3 = 0conns=[Delta Wye]kvs=[13.8 0.38] taps=[1.045 1.045] kvas=[150.0 150.0] %loadloss=1.249 %noloadloss=0.308
New "Reactor.TRF_1_18 phases=1 bus1="ET1_18.4" R=15 X=0 basefreq=60

New "Transformer.TRF_1_120" phases=3 windings=2 buses=["19591.1.2.3" "ET1_120.1.2.3.4"] bus3 = 0conns=[Delta Wye]kvs=[13.8 0.38] taps=[1.045 1.045] kvas=[75.0 75.0] %loadloss=1.769 %noloadloss=0.445
New "Reactor.TRF_1_120 phases=1 bus1="ET1_120.4" R=15 X=0 basefreq=60

New "Transformer.TRF_1_15" phases=3 windings=2 buses=["16061.1.2.3" "ET1_15.1.2.3.4"] bus3 = 0conns=[Delta Wye]kvs=[13.8 0.38] taps=[1.045 1.045] kvas=[75.0 75.0] %loadloss=1.769 %noloadloss=0.445
New "Reactor.TRF_1_15 phases=1 bus1="ET1_15.4" R=15 X=0 basefreq=60

New "Transformer.TRF_1_125" phases=3 windings=2 buses=["64021.1.2.3" "ET1_125.1.2.3.4"] bus3 = 0conns=[Delta Wye]kvs=[13.8 0.38] taps=[1.045 1.045] kvas=[150.0 150.0] %loadloss=1.249 %noloadloss=0.308
New "Reactor.TRF_1_125 phases=1 bus1="ET1_125.4" R=15 X=0 basefreq=60

New "Transformer.TRF_1_20" phases=3 windings=2 buses=["7961.1.2.3" "ET1_20.1.2.3.4"] bus3 = 0conns=[Delta Wye]kvs=[13.8 0.38] taps=[1.045 1.045] kvas=[112.5 112.5] %loadloss=1.876 %noloadloss=0.382
New "Reactor.TRF_1_20 phases=1 bus1="ET1_20.4" R=15 X=0 basefreq=60

New "Transformer.TRF_1_118" phases=3 windings=2 buses=["14231.1.2.3" "ET1_118.1.2.3.4"] bus3 = 0conns=[Delta Wye]kvs=[13.8 0.38] taps=[1.045 1.045] kvas=[75.0 75.0] %loadloss=1.769 %noloadloss=0.445
New "Reactor.TRF_1_118 phases=1 bus1="ET1_118.4" R=15 X=0 basefreq=60

New "Transformer.TRF_1_142" phases=3 windings=2 buses=["68631.1.2.3" "ET1_142.1.2.3.4"] bus3 = 0conns=[Delta Wye]kvs=[13.8 0.38] taps=[1.045 1.045] kvas=[75.0 75.0] %loadloss=1.769 %noloadloss=0.445
New "Reactor.TRF_1_142 phases=1 bus1="ET1_142.4" R=15 X=0 basefreq=60

New "Transformer.TRF_1_145" phases=3 windings=2 buses=["69191.1.2.3" "ET1_145.1.2.3.4"] bus3 = 0conns=[Delta Wye]kvs=[13.8 0.38] taps=[1.045 1.045] kvas=[45.0 45.0] %loadloss=1.853 %noloadloss=0.478
New "Reactor.TRF_1_145 phases=1 bus1="ET1_145.4" R=15 X=0 basefreq=60

New "Transformer.TRF_1_121" phases=3 windings=2 buses=["69141.1.2.3" "ET1_121.1.2.3.4"] bus3 = 0conns=[Delta Wye]kvs=[13.8 0.38] taps=[1.045 1.045] kvas=[300.0 300.0] %loadloss=1.170 %noloadloss=0.324
New "Reactor.TRF_1_121 phases=1 bus1="ET1_121.4" R=15 X=0 basefreq=60

New "Transformer.TRF_1_146" phases=3 windings=2 buses=["19811.1.2.3" "ET1_146.1.2.3.4"] bus3 = 0conns=[Delta Wye]kvs=[13.8 0.38] taps=[1.045 1.045] kvas=[112.5 112.5] %loadloss=1.876 %noloadloss=0.382
New "Reactor.TRF_1_146 phases=1 bus1="ET1_146.4" R=15 X=0 basefreq=60

New "Transformer.TRF_1_147" phases=3 windings=2 buses=["69431.1.2.3" "ET1_147.1.2.3.4"] bus3 = 0conns=[Delta Wye]kvs=[13.8 0.38] taps=[1.045 1.045] kvas=[75.0 75.0] %loadloss=1.769 %noloadloss=0.445
New "Reactor.TRF_1_147 phases=1 bus1="ET1_147.4" R=15 X=0 basefreq=60

New "Transformer.TRF_1_149" phases=3 windings=2 buses=["121.1.2.3" "ET1_149.1.2.3.4"] bus3 = 0conns=[Delta Wye]kvs=[13.8 0.38] taps=[1.045 1.045] kvas=[112.5 112.5] %loadloss=1.876 %noloadloss=0.382
New "Reactor.TRF_1_149 phases=1 bus1="ET1_149.4" R=15 X=0 basefreq=60

New "Transformer.TRF_1_103" phases=3 windings=2 buses=["72861.1.2.3" "ET1_103.1.2.3.4"] bus3 = 0conns=[Delta Wye]kvs=[13.8 0.38] taps=[1.045 1.045] kvas=[150.0 150.0] %loadloss=1.249 %noloadloss=0.308
New "Reactor.TRF_1_103 phases=1 bus1="ET1_103.4" R=15 X=0 basefreq=60

New "Transformer.TRF_1_154" phases=3 windings=2 buses=["73341.1.2.3" "ET1_154.1.2.3.4"] bus3 = 0conns=[Delta Wye]kvs=[13.8 0.38] taps=[1.045 1.045] kvas=[45.0 45.0] %loadloss=1.853 %noloadloss=0.478
New "Reactor.TRF_1_154 phases=1 bus1="ET1_154.4" R=15 X=0 basefreq=60

New "Transformer.TRF_1_37" phases=3 windings=2 buses=["1171.1.2.3" "ET1_37.1.2.3.4"] bus3 = 0conns=[Delta Wye]kvs=[13.8 0.38] taps=[1.045 1.045] kvas=[150.0 150.0] %loadloss=1.249 %noloadloss=0.308
New "Reactor.TRF_1_37 phases=1 bus1="ET1_37.4" R=15 X=0 basefreq=60

New "Transformer.TRF_1_29" phases=3 windings=2 buses=["18051.1.2.3" "ET1_29.1.2.3.4"] bus3 = 0conns=[Delta Wye]kvs=[13.8 0.38] taps=[1.045 1.045] kvas=[112.5 112.5] %loadloss=1.876 %noloadloss=0.382
New "Reactor.TRF_1_29 phases=1 bus1="ET1_29.4" R=15 X=0 basefreq=60

New "Transformer.TRF_1_53" phases=3 windings=2 buses=["4371.1.2.3" "ET1_53.1.2.3.4"] bus3 = 0conns=[Delta Wye]kvs=[13.8 0.38] taps=[1.045 1.045] kvas=[75.0 75.0] %loadloss=1.769 %noloadloss=0.445
New "Reactor.TRF_1_53 phases=1 bus1="ET1_53.4" R=15 X=0 basefreq=60

New "Transformer.TRF_1_74" phases=3 windings=2 buses=["14911.1.2.3" "ET1_74.1.2.3.4"] bus3 = 0conns=[Delta Wye]kvs=[13.8 0.38] taps=[1.045 1.045] kvas=[75.0 75.0] %loadloss=1.769 %noloadloss=0.445
New "Reactor.TRF_1_74 phases=1 bus1="ET1_74.4" R=15 X=0 basefreq=60

New "Transformer.TRF_1_54" phases=3 windings=2 buses=["6491.1.2.3" "ET1_54.1.2.3.4"] bus3 = 0conns=[Delta Wye]kvs=[13.8 0.38] taps=[1.045 1.045] kvas=[45.0 45.0] %loadloss=1.853 %noloadloss=0.478
New "Reactor.TRF_1_54 phases=1 bus1="ET1_54.4" R=15 X=0 basefreq=60

New "Transformer.TRF_1_34" phases=3 windings=2 buses=["2481.1.2.3" "ET1_34.1.2.3.4"] bus3 = 0conns=[Delta Wye]kvs=[7.96 0.44] taps=[1.045 1.045] kvas=[75.0 75.0] %loadloss=1.769 %noloadloss=0.445
New "Reactor.TRF_1_34 phases=1 bus1="ET1_34.4" R=15 X=0 basefreq=60

New "Transformer.TRF_1_16" phases=3 windings=2 buses=["23451.1.2.3" "ET1_16.1.2.3.4"] bus3 = 0conns=[Delta Wye]kvs=[13.8 0.38] taps=[1.045 1.045] kvas=[112.5 112.5] %loadloss=1.876 %noloadloss=0.382
New "Reactor.TRF_1_16 phases=1 bus1="ET1_16.4" R=15 X=0 basefreq=60

New "Transformer.TRF_1_9" phases=3 windings=2 buses=["19531.1.2.3" "ET1_9.1.2.3.4"] bus3 = 0conns=[Delta Wye]kvs=[13.8 0.38] taps=[1.045 1.045] kvas=[75.0 75.0] %loadloss=1.769 %noloadloss=0.445
New "Reactor.TRF_1_9 phases=1 bus1="ET1_9.4" R=15 X=0 basefreq=60

New "Transformer.TRF_1_40" phases=3 windings=2 buses=["1211.1.2.3" "ET1_40.1.2.3.4"] bus3 = 0conns=[Delta Wye]kvs=[13.8 0.38] taps=[1.045 1.045] kvas=[150.0 150.0] %loadloss=1.249 %noloadloss=0.308
New "Reactor.TRF_1_40 phases=1 bus1="ET1_40.4" R=15 X=0 basefreq=60

New "Transformer.TRF_1_17" phases=3 windings=2 buses=["7182.1.2.3" "ET1_17.1.2.3.4"] bus3 = 0conns=[Delta Wye]kvs=[13.8 0.38] taps=[1.045 1.045] kvas=[112.5 112.5] %loadloss=1.876 %noloadloss=0.382
New "Reactor.TRF_1_17 phases=1 bus1="ET1_17.4" R=15 X=0 basefreq=60
