New "Load.BT_1284_M1" bus1="UC14865.2.3.4" phases=2 conn=delta model=2 kv=0.38 kw = 317.20712265408116 pf=0.92 status=variable vmaxpu=1.5 vminpu=0.93 daily="RES_2_DO" 
New "Load.BT_1284_M2" bus1="UC14865.2.3.4" phases=2 conn=delta model=3 kv=0.38 kw = 317.20712265408116 pf=0.92 status=variable vmaxpu=1.5 vminpu=0.93 daily="RES_2_DO"
 
New "Load.BT_7585_M1" bus1="UC15172.1.4" phases=1 conn=delta model=2 kv=0.22 kw = 182.5437215273486 pf=0.92 status=variable vmaxpu=1.5 vminpu=0.93 daily="RES_2_DO" 
New "Load.BT_7585_M2" bus1="UC15172.1.4" phases=1 conn=delta model=3 kv=0.22 kw = 182.5437215273486 pf=0.92 status=variable vmaxpu=1.5 vminpu=0.93 daily="RES_2_DO"
 
New "Load.BT_1321_M1" bus1="UC15176.1.2.3.4" phases=3 conn=delta model=2 kv=0.38 kw = 0.0 pf=0.92 status=variable vmaxpu=1.5 vminpu=0.93 daily="COM_13_DO" 
New "Load.BT_1321_M2" bus1="UC15176.1.2.3.4" phases=3 conn=delta model=3 kv=0.38 kw = 0.0 pf=0.92 status=variable vmaxpu=1.5 vminpu=0.93 daily="COM_13_DO"
 
New "Load.BT_1284_M1" bus1="UC14865.3.1.4" phases=2 conn=delta model=2 kv=0.38 kw = 460.84808385592925 pf=0.92 status=variable vmaxpu=1.5 vminpu=0.93 daily="RES_2_DO" 
New "Load.BT_1284_M2" bus1="UC14865.3.1.4" phases=2 conn=delta model=3 kv=0.38 kw = 460.84808385592925 pf=0.92 status=variable vmaxpu=1.5 vminpu=0.93 daily="RES_2_DO"
 
New "Load.BT_7553_M1" bus1="UC20061.1.2.3.4" phases=3 conn=delta model=2 kv=0.38 kw = 21.533510310320917 pf=0.92 status=variable vmaxpu=1.5 vminpu=0.93 daily="RES_7_DO" 
New "Load.BT_7553_M2" bus1="UC20061.1.2.3.4" phases=3 conn=delta model=3 kv=0.38 kw = 21.533510310320917 pf=0.92 status=variable vmaxpu=1.5 vminpu=0.93 daily="RES_7_DO"
 
New "Load.BT_2523_M1" bus1="UC20136.3.4" phases=1 conn=delta model=2 kv=0.22 kw = 13.63515879697643 pf=0.92 status=variable vmaxpu=1.5 vminpu=0.93 daily="RES_3_DO" 
New "Load.BT_2523_M2" bus1="UC20136.3.4" phases=1 conn=delta model=3 kv=0.22 kw = 13.63515879697643 pf=0.92 status=variable vmaxpu=1.5 vminpu=0.93 daily="RES_3_DO"
 
New "Load.BT_1656_M1" bus1="UC1545.1.4" phases=1 conn=delta model=2 kv=0.22 kw = 331.7888640597598 pf=0.92 status=variable vmaxpu=1.5 vminpu=0.93 daily="RES_3_DO" 
New "Load.BT_1656_M2" bus1="UC1545.1.4" phases=1 conn=delta model=3 kv=0.22 kw = 331.7888640597598 pf=0.92 status=variable vmaxpu=1.5 vminpu=0.93 daily="RES_3_DO"
 
New "Load.BT_446_M1" bus1="UC16148.1.2.3.4" phases=3 conn=delta model=2 kv=0.38 kw = 39478.32977017909 pf=0.92 status=variable vmaxpu=1.5 vminpu=0.93 daily="RES_3_DO" 
New "Load.BT_446_M2" bus1="UC16148.1.2.3.4" phases=3 conn=delta model=3 kv=0.38 kw = 39478.32977017909 pf=0.92 status=variable vmaxpu=1.5 vminpu=0.93 daily="RES_3_DO"
 
New "Load.BT_7293_M1" bus1="UC20138.2.3.4" phases=2 conn=delta model=2 kv=0.38 kw = 0.0 pf=0.92 status=variable vmaxpu=1.5 vminpu=0.93 daily="RES_7_DO" 
New "Load.BT_7293_M2" bus1="UC20138.2.3.4" phases=2 conn=delta model=3 kv=0.38 kw = 0.0 pf=0.92 status=variable vmaxpu=1.5 vminpu=0.93 daily="RES_7_DO"
 
New "Load.BT_1288_M1" bus1="UC8495.1.4" phases=1 conn=delta model=2 kv=0.22 kw = 21.533510310320917 pf=0.92 status=variable vmaxpu=1.5 vminpu=0.93 daily="RES_7_DO" 
New "Load.BT_1288_M2" bus1="UC8495.1.4" phases=1 conn=delta model=3 kv=0.22 kw = 21.533510310320917 pf=0.92 status=variable vmaxpu=1.5 vminpu=0.93 daily="RES_7_DO"
 
New "Load.BT_2743_M1" bus1="UC6417.2.4" phases=1 conn=delta model=2 kv=0.22 kw = 304.51854646580693 pf=0.92 status=variable vmaxpu=1.5 vminpu=0.93 daily="RES_3_DO" 
New "Load.BT_2743_M2" bus1="UC6417.2.4" phases=1 conn=delta model=3 kv=0.22 kw = 304.51854646580693 pf=0.92 status=variable vmaxpu=1.5 vminpu=0.93 daily="RES_3_DO"
 
New "Load.BT_7794_M1" bus1="UC16133.1.4" phases=1 conn=delta model=2 kv=0.22 kw = 31.103959337130213 pf=0.92 status=variable vmaxpu=1.5 vminpu=0.93 daily="RES_7_DO" 
New "Load.BT_7794_M2" bus1="UC16133.1.4" phases=1 conn=delta model=3 kv=0.22 kw = 31.103959337130213 pf=0.92 status=variable vmaxpu=1.5 vminpu=0.93 daily="RES_7_DO"
 
New "Load.BT_660_M1" bus1="UC15632.3.4" phases=1 conn=delta model=2 kv=0.22 kw = 68.17579398488216 pf=0.92 status=variable vmaxpu=1.5 vminpu=0.93 daily="RES_3_DO" 
New "Load.BT_660_M2" bus1="UC15632.3.4" phases=1 conn=delta model=3 kv=0.22 kw = 68.17579398488216 pf=0.92 status=variable vmaxpu=1.5 vminpu=0.93 daily="RES_3_DO"
 
New "Load.BT_8598_M1" bus1="UC16137.1.2.3.4" phases=3 conn=delta model=2 kv=0.38 kw = 490.86571669115153 pf=0.92 status=variable vmaxpu=1.5 vminpu=0.93 daily="RES_3_DO" 
New "Load.BT_8598_M2" bus1="UC16137.1.2.3.4" phases=3 conn=delta model=3 kv=0.38 kw = 490.86571669115153 pf=0.92 status=variable vmaxpu=1.5 vminpu=0.93 daily="RES_3_DO"
 
New "Load.BT_8649_M1" bus1="UC16131.1.2.3.4" phases=3 conn=delta model=2 kv=0.38 kw = 190.89222315767 pf=0.92 status=variable vmaxpu=1.5 vminpu=0.93 daily="RES_3_DO" 
New "Load.BT_8649_M2" bus1="UC16131.1.2.3.4" phases=3 conn=delta model=3 kv=0.38 kw = 190.89222315767 pf=0.92 status=variable vmaxpu=1.5 vminpu=0.93 daily="RES_3_DO"
 
New "Load.BT_8569_M1" bus1="UC20135.1.2.4" phases=2 conn=delta model=2 kv=0.38 kw = 63.63074105255667 pf=0.92 status=variable vmaxpu=1.5 vminpu=0.93 daily="RES_3_DO" 
New "Load.BT_8569_M2" bus1="UC20135.1.2.4" phases=2 conn=delta model=3 kv=0.38 kw = 63.63074105255667 pf=0.92 status=variable vmaxpu=1.5 vminpu=0.93 daily="RES_3_DO"
 
New "Load.BT_856_M1" bus1="UC1889.3.4" phases=1 conn=delta model=2 kv=0.22 kw = 21.533510310320917 pf=0.92 status=variable vmaxpu=1.5 vminpu=0.93 daily="RES_7_DO" 
New "Load.BT_856_M2" bus1="UC1889.3.4" phases=1 conn=delta model=3 kv=0.22 kw = 21.533510310320917 pf=0.92 status=variable vmaxpu=1.5 vminpu=0.93 daily="RES_7_DO"
 
New "Load.BT_2601_M1" bus1="UC15849.2.4" phases=1 conn=delta model=2 kv=0.22 kw = 343.6181971627578 pf=0.92 status=variable vmaxpu=1.5 vminpu=0.93 daily="RES_5_DO" 
New "Load.BT_2601_M2" bus1="UC15849.2.4" phases=1 conn=delta model=3 kv=0.22 kw = 343.6181971627578 pf=0.92 status=variable vmaxpu=1.5 vminpu=0.93 daily="RES_5_DO"
 
New "Load.BT_7733_M1" bus1="UC20092.2.3.4" phases=2 conn=delta model=2 kv=0.38 kw = 349.9690757890617 pf=0.92 status=variable vmaxpu=1.5 vminpu=0.93 daily="RES_3_DO" 
New "Load.BT_7733_M2" bus1="UC20092.2.3.4" phases=2 conn=delta model=3 kv=0.38 kw = 349.9690757890617 pf=0.92 status=variable vmaxpu=1.5 vminpu=0.93 daily="RES_3_DO"
 
New "Load.BT_7733_M1" bus1="UC20093.3.1.4" phases=2 conn=delta model=2 kv=0.38 kw = 227.2981643867208 pf=0.92 status=variable vmaxpu=1.5 vminpu=0.93 daily="RES_7_DO" 
New "Load.BT_7733_M2" bus1="UC20093.3.1.4" phases=2 conn=delta model=3 kv=0.38 kw = 227.2981643867208 pf=0.92 status=variable vmaxpu=1.5 vminpu=0.93 daily="RES_7_DO"
 
New "Load.BT_7734_M1" bus1="UC20094.2.3.4" phases=2 conn=delta model=2 kv=0.38 kw = 0.0 pf=0.92 status=variable vmaxpu=1.5 vminpu=0.93 daily="RES_7_DO" 
New "Load.BT_7734_M2" bus1="UC20094.2.3.4" phases=2 conn=delta model=3 kv=0.38 kw = 0.0 pf=0.92 status=variable vmaxpu=1.5 vminpu=0.93 daily="RES_7_DO"
 
New "Load.BT_2245_M1" bus1="UC20095.1.2.4" phases=2 conn=delta model=2 kv=0.38 kw = 622.6722517285903 pf=0.92 status=variable vmaxpu=1.5 vminpu=0.93 daily="RES_3_DO" 
New "Load.BT_2245_M2" bus1="UC20095.1.2.4" phases=2 conn=delta model=3 kv=0.38 kw = 622.6722517285903 pf=0.92 status=variable vmaxpu=1.5 vminpu=0.93 daily="RES_3_DO"
 
New "Load.BT_1794_M1" bus1="UC15505.3.4" phases=1 conn=delta model=2 kv=0.22 kw = 56.857880475731534 pf=0.92 status=variable vmaxpu=1.5 vminpu=0.93 daily="RES_2_DO" 
New "Load.BT_1794_M2" bus1="UC15505.3.4" phases=1 conn=delta model=3 kv=0.22 kw = 56.857880475731534 pf=0.92 status=variable vmaxpu=1.5 vminpu=0.93 daily="RES_2_DO"
 
New "Load.BT_657_M1" bus1="UC14583.1.4" phases=1 conn=delta model=2 kv=0.22 kw = 254.36420212827264 pf=0.92 status=variable vmaxpu=1.5 vminpu=0.93 daily="RES_2_DO" 
New "Load.BT_657_M2" bus1="UC14583.1.4" phases=1 conn=delta model=3 kv=0.22 kw = 254.36420212827264 pf=0.92 status=variable vmaxpu=1.5 vminpu=0.93 daily="RES_2_DO"
 
New "Load.BT_1284_M1" bus1="UC13787.3.1.4" phases=2 conn=delta model=2 kv=0.38 kw = 275.31184230354216 pf=0.92 status=variable vmaxpu=1.5 vminpu=0.93 daily="RES_2_DO" 
New "Load.BT_1284_M2" bus1="UC13787.3.1.4" phases=2 conn=delta model=3 kv=0.38 kw = 275.31184230354216 pf=0.92 status=variable vmaxpu=1.5 vminpu=0.93 daily="RES_2_DO"
 
New "Load.BT_7306_M1" bus1="UC15143.3.4" phases=1 conn=delta model=2 kv=0.22 kw = 320.1996426791197 pf=0.92 status=variable vmaxpu=1.5 vminpu=0.93 daily="RES_2_DO" 
New "Load.BT_7306_M2" bus1="UC15143.3.4" phases=1 conn=delta model=3 kv=0.22 kw = 320.1996426791197 pf=0.92 status=variable vmaxpu=1.5 vminpu=0.93 daily="RES_2_DO"
 
New "Load.BT_7829_M1" bus1="UC15152.2.4" phases=1 conn=delta model=2 kv=0.22 kw = 167.5811214021561 pf=0.92 status=variable vmaxpu=1.5 vminpu=0.93 daily="RES_2_DO" 
New "Load.BT_7829_M2" bus1="UC15152.2.4" phases=1 conn=delta model=3 kv=0.22 kw = 167.5811214021561 pf=0.92 status=variable vmaxpu=1.5 vminpu=0.93 daily="RES_2_DO"
 
New "Load.BT_2405_M1" bus1="UC4970.2.3.4" phases=2 conn=delta model=2 kv=0.38 kw = 1640.9419098342669 pf=0.92 status=variable vmaxpu=1.5 vminpu=0.93 daily="RES_4_DO" 
New "Load.BT_2405_M2" bus1="UC4970.2.3.4" phases=2 conn=delta model=3 kv=0.38 kw = 1640.9419098342669 pf=0.92 status=variable vmaxpu=1.5 vminpu=0.93 daily="RES_4_DO"
 
New "Load.BT_2823_M1" bus1="UC4516.2.4" phases=1 conn=delta model=2 kv=0.22 kw = 131.67088110169408 pf=0.92 status=variable vmaxpu=1.5 vminpu=0.93 daily="RES_2_DO" 
New "Load.BT_2823_M2" bus1="UC4516.2.4" phases=1 conn=delta model=3 kv=0.22 kw = 131.67088110169408 pf=0.92 status=variable vmaxpu=1.5 vminpu=0.93 daily="RES_2_DO"
 
New "Load.BT_7463_M1" bus1="UC4971.2.3.4" phases=2 conn=delta model=2 kv=0.38 kw = 452.729975375583 pf=0.92 status=variable vmaxpu=1.5 vminpu=0.93 daily="RES_1_DO" 
New "Load.BT_7463_M2" bus1="UC4971.2.3.4" phases=2 conn=delta model=3 kv=0.38 kw = 452.729975375583 pf=0.92 status=variable vmaxpu=1.5 vminpu=0.93 daily="RES_1_DO"
 
New "Load.BT_2049_M1" bus1="UC4838.2.3.4" phases=2 conn=delta model=2 kv=0.38 kw = 256.6407303033458 pf=0.92 status=variable vmaxpu=1.5 vminpu=0.93 daily="RES_13_DO" 
New "Load.BT_2049_M2" bus1="UC4838.2.3.4" phases=2 conn=delta model=3 kv=0.38 kw = 256.6407303033458 pf=0.92 status=variable vmaxpu=1.5 vminpu=0.93 daily="RES_13_DO"
 
New "Load.BT_874_M1" bus1="UC13502.1.2.3.4" phases=3 conn=delta model=2 kv=0.38 kw = 1992.5701644900216 pf=0.92 status=variable vmaxpu=1.5 vminpu=0.93 daily="RES_13_DO" 
New "Load.BT_874_M2" bus1="UC13502.1.2.3.4" phases=3 conn=delta model=3 kv=0.38 kw = 1992.5701644900216 pf=0.92 status=variable vmaxpu=1.5 vminpu=0.93 daily="RES_13_DO"
 
New "Load.BT_893_M1" bus1="UC9729.1.2.3.4" phases=3 conn=delta model=2 kv=0.38 kw = 1145.2040554528348 pf=0.92 status=variable vmaxpu=1.5 vminpu=0.93 daily="COM_1_DO" 
New "Load.BT_893_M2" bus1="UC9729.1.2.3.4" phases=3 conn=delta model=3 kv=0.38 kw = 1145.2040554528348 pf=0.92 status=variable vmaxpu=1.5 vminpu=0.93 daily="COM_1_DO"
 
New "Load.BT_6901_M1" bus1="UC15134.3.4" phases=1 conn=delta model=2 kv=0.22 kw = 481.7957240311988 pf=0.92 status=variable vmaxpu=1.5 vminpu=0.93 daily="RES_2_DO" 
New "Load.BT_6901_M2" bus1="UC15134.3.4" phases=1 conn=delta model=3 kv=0.22 kw = 481.7957240311988 pf=0.92 status=variable vmaxpu=1.5 vminpu=0.93 daily="RES_2_DO"
 
New "Load.BT_2271_M1" bus1="UC3269.2.4" phases=1 conn=delta model=2 kv=0.22 kw = 170.5736414271946 pf=0.92 status=variable vmaxpu=1.5 vminpu=0.93 daily="RES_2_DO" 
New "Load.BT_2271_M2" bus1="UC3269.2.4" phases=1 conn=delta model=3 kv=0.22 kw = 170.5736414271946 pf=0.92 status=variable vmaxpu=1.5 vminpu=0.93 daily="RES_2_DO"
 
New "Load.BT_363_M1" bus1="UC8092.3.4" phases=1 conn=delta model=2 kv=0.22 kw = 330.2265702739547 pf=0.92 status=variable vmaxpu=1.5 vminpu=0.93 daily="RES_1_DO" 
New "Load.BT_363_M2" bus1="UC8092.3.4" phases=1 conn=delta model=3 kv=0.22 kw = 330.2265702739547 pf=0.92 status=variable vmaxpu=1.5 vminpu=0.93 daily="RES_1_DO"
 
New "Load.BT_1388_M1" bus1="UC16119.1.2.3.4" phases=3 conn=delta model=2 kv=0.38 kw = 309.0635993981324 pf=0.92 status=variable vmaxpu=1.5 vminpu=0.93 daily="RES_3_DO" 
New "Load.BT_1388_M2" bus1="UC16119.1.2.3.4" phases=3 conn=delta model=3 kv=0.38 kw = 309.0635993981324 pf=0.92 status=variable vmaxpu=1.5 vminpu=0.93 daily="RES_3_DO"
 
New "Load.BT_7601_M1" bus1="UC14406.1.4" phases=1 conn=delta model=2 kv=0.22 kw = 1199.893974133926 pf=0.92 status=variable vmaxpu=1.5 vminpu=0.93 daily="RES_3_DO" 
New "Load.BT_7601_M2" bus1="UC14406.1.4" phases=1 conn=delta model=3 kv=0.22 kw = 1199.893974133926 pf=0.92 status=variable vmaxpu=1.5 vminpu=0.93 daily="RES_3_DO"
 
New "Load.BT_984_M1" bus1="UC3585.1.2.3.4" phases=3 conn=delta model=2 kv=0.38 kw = 913.5556393974209 pf=0.92 status=variable vmaxpu=1.5 vminpu=0.93 daily="RES_3_DO" 
New "Load.BT_984_M2" bus1="UC3585.1.2.3.4" phases=3 conn=delta model=3 kv=0.38 kw = 913.5556393974209 pf=0.92 status=variable vmaxpu=1.5 vminpu=0.93 daily="RES_3_DO"
 
New "Load.BT_6510_M1" bus1="UC16127.1.4" phases=1 conn=delta model=2 kv=0.22 kw = 2.392612256702324 pf=0.92 status=variable vmaxpu=1.5 vminpu=0.93 daily="RES_7_DO" 
New "Load.BT_6510_M2" bus1="UC16127.1.4" phases=1 conn=delta model=3 kv=0.22 kw = 2.392612256702324 pf=0.92 status=variable vmaxpu=1.5 vminpu=0.93 daily="RES_7_DO"
 
New "Load.BT_2175_M1" bus1="UC20134.1.2.3.4" phases=3 conn=delta model=2 kv=0.38 kw = 4.785224513404648 pf=0.92 status=variable vmaxpu=1.5 vminpu=0.93 daily="RES_7_DO" 
New "Load.BT_2175_M2" bus1="UC20134.1.2.3.4" phases=3 conn=delta model=3 kv=0.38 kw = 4.785224513404648 pf=0.92 status=variable vmaxpu=1.5 vminpu=0.93 daily="RES_7_DO"
 
New "Load.BT_6508_M1" bus1="UC15833.1.2.4" phases=2 conn=delta model=2 kv=0.38 kw = 34.62052752872105 pf=0.92 status=variable vmaxpu=1.5 vminpu=0.93 daily="RES_1_DO" 
New "Load.BT_6508_M2" bus1="UC15833.1.2.4" phases=2 conn=delta model=3 kv=0.38 kw = 34.62052752872105 pf=0.92 status=variable vmaxpu=1.5 vminpu=0.93 daily="RES_1_DO"
 
New "Load.BT_2830_M1" bus1="UC3356.1.4" phases=1 conn=delta model=2 kv=0.22 kw = 308.22956257896567 pf=0.92 status=variable vmaxpu=1.5 vminpu=0.93 daily="RES_2_DO" 
New "Load.BT_2830_M2" bus1="UC3356.1.4" phases=1 conn=delta model=3 kv=0.22 kw = 308.22956257896567 pf=0.92 status=variable vmaxpu=1.5 vminpu=0.93 daily="RES_2_DO"
 
New "Load.BT_2830_M1" bus1="UC3356.2.4" phases=1 conn=delta model=2 kv=0.22 kw = 334.2543715400488 pf=0.92 status=variable vmaxpu=1.5 vminpu=0.93 daily="RES_12_DO" 
New "Load.BT_2830_M2" bus1="UC3356.2.4" phases=1 conn=delta model=3 kv=0.22 kw = 334.2543715400488 pf=0.92 status=variable vmaxpu=1.5 vminpu=0.93 daily="RES_12_DO"
 
New "Load.BT_7605_M1" bus1="UC11738.3.4" phases=1 conn=delta model=2 kv=0.22 kw = 267.5148380595967 pf=0.92 status=variable vmaxpu=1.5 vminpu=0.93 daily="RES_5_DO" 
New "Load.BT_7605_M2" bus1="UC11738.3.4" phases=1 conn=delta model=3 kv=0.22 kw = 267.5148380595967 pf=0.92 status=variable vmaxpu=1.5 vminpu=0.93 daily="RES_5_DO"
 
New "Load.BT_7725_M1" bus1="UC20089.3.4" phases=1 conn=delta model=2 kv=0.22 kw = 17.95512015023101 pf=0.92 status=variable vmaxpu=1.5 vminpu=0.93 daily="RES_2_DO" 
New "Load.BT_7725_M2" bus1="UC20089.3.4" phases=1 conn=delta model=3 kv=0.22 kw = 17.95512015023101 pf=0.92 status=variable vmaxpu=1.5 vminpu=0.93 daily="RES_2_DO"
 
New "Load.BT_2519_M1" bus1="UC15842.2.4" phases=1 conn=delta model=2 kv=0.22 kw = 549.9514048113826 pf=0.92 status=variable vmaxpu=1.5 vminpu=0.93 daily="RES_3_DO" 
New "Load.BT_2519_M2" bus1="UC15842.2.4" phases=1 conn=delta model=3 kv=0.22 kw = 549.9514048113826 pf=0.92 status=variable vmaxpu=1.5 vminpu=0.93 daily="RES_3_DO"
 
New "Load.BT_6668_M1" bus1="UC15843.2.3.4" phases=2 conn=delta model=2 kv=0.38 kw = 223.70187018558218 pf=0.92 status=variable vmaxpu=1.5 vminpu=0.93 daily="RES_1_DO" 
New "Load.BT_6668_M2" bus1="UC15843.2.3.4" phases=2 conn=delta model=3 kv=0.38 kw = 223.70187018558218 pf=0.92 status=variable vmaxpu=1.5 vminpu=0.93 daily="RES_1_DO"
 
New "Load.BT_7732_M1" bus1="UC20090.2.3.4" phases=2 conn=delta model=2 kv=0.38 kw = 336.84549069927397 pf=0.92 status=variable vmaxpu=1.5 vminpu=0.93 daily="RES_12_DO" 
New "Load.BT_7732_M2" bus1="UC20090.2.3.4" phases=2 conn=delta model=3 kv=0.38 kw = 336.84549069927397 pf=0.92 status=variable vmaxpu=1.5 vminpu=0.93 daily="RES_12_DO"
 
New "Load.BT_7733_M1" bus1="UC20091.2.3.4" phases=2 conn=delta model=2 kv=0.38 kw = 274.43332525079313 pf=0.92 status=variable vmaxpu=1.5 vminpu=0.93 daily="RES_5_DO" 
New "Load.BT_7733_M2" bus1="UC20091.2.3.4" phases=2 conn=delta model=3 kv=0.38 kw = 274.43332525079313 pf=0.92 status=variable vmaxpu=1.5 vminpu=0.93 daily="RES_5_DO"
 
New "Load.BT_2860_M1" bus1="UC2244.1.4" phases=1 conn=delta model=2 kv=0.22 kw = 481.56181978268256 pf=0.92 status=variable vmaxpu=1.5 vminpu=0.93 daily="RES_13_DO" 
New "Load.BT_2860_M2" bus1="UC2244.1.4" phases=1 conn=delta model=3 kv=0.22 kw = 481.56181978268256 pf=0.92 status=variable vmaxpu=1.5 vminpu=0.93 daily="RES_13_DO"
 
New "Load.BT_893_M1" bus1="UC9729.3.4" phases=1 conn=delta model=2 kv=0.22 kw = 368.64088328560905 pf=0.92 status=variable vmaxpu=1.5 vminpu=0.93 daily="COM_1_DO" 
New "Load.BT_893_M2" bus1="UC9729.3.4" phases=1 conn=delta model=3 kv=0.22 kw = 368.64088328560905 pf=0.92 status=variable vmaxpu=1.5 vminpu=0.93 daily="COM_1_DO"
 
New "Load.BT_893_M1" bus1="UC9729.2.4" phases=1 conn=delta model=2 kv=0.22 kw = 391.1893716643997 pf=0.92 status=variable vmaxpu=1.5 vminpu=0.93 daily="RES_10_DO" 
New "Load.BT_893_M2" bus1="UC9729.2.4" phases=1 conn=delta model=3 kv=0.22 kw = 391.1893716643997 pf=0.92 status=variable vmaxpu=1.5 vminpu=0.93 daily="RES_10_DO"
 
New "Load.BT_1939_M1" bus1="UC20043.2.3.4" phases=2 conn=delta model=2 kv=0.38 kw = 900.748527536589 pf=0.92 status=variable vmaxpu=1.5 vminpu=0.93 daily="RES_2_DO" 
New "Load.BT_1939_M2" bus1="UC20043.2.3.4" phases=2 conn=delta model=3 kv=0.38 kw = 900.748527536589 pf=0.92 status=variable vmaxpu=1.5 vminpu=0.93 daily="RES_2_DO"
 
New "Load.BT_8375_M1" bus1="UC4987.1.2.4" phases=2 conn=delta model=2 kv=0.38 kw = 101.74568085130906 pf=0.92 status=variable vmaxpu=1.5 vminpu=0.93 daily="RES_2_DO" 
New "Load.BT_8375_M2" bus1="UC4987.1.2.4" phases=2 conn=delta model=3 kv=0.38 kw = 101.74568085130906 pf=0.92 status=variable vmaxpu=1.5 vminpu=0.93 daily="RES_2_DO"
 
New "Load.BT_7746_M1" bus1="UC2758.3.4" phases=1 conn=delta model=2 kv=0.22 kw = 220.12032761661382 pf=0.92 status=variable vmaxpu=1.5 vminpu=0.93 daily="RES_7_DO" 
New "Load.BT_7746_M2" bus1="UC2758.3.4" phases=1 conn=delta model=3 kv=0.22 kw = 220.12032761661382 pf=0.92 status=variable vmaxpu=1.5 vminpu=0.93 daily="RES_7_DO"
 
New "Load.BT_830_M1" bus1="UC2488.1.4" phases=1 conn=delta model=2 kv=0.22 kw = 290.2744424287347 pf=0.92 status=variable vmaxpu=1.5 vminpu=0.93 daily="RES_2_DO" 
New "Load.BT_830_M2" bus1="UC2488.1.4" phases=1 conn=delta model=3 kv=0.22 kw = 290.2744424287347 pf=0.92 status=variable vmaxpu=1.5 vminpu=0.93 daily="RES_2_DO"
 
New "Load.BT_830_M1" bus1="UC2488.2.4" phases=1 conn=delta model=2 kv=0.22 kw = 424.9378435554673 pf=0.92 status=variable vmaxpu=1.5 vminpu=0.93 daily="RES_2_DO" 
New "Load.BT_830_M2" bus1="UC2488.2.4" phases=1 conn=delta model=3 kv=0.22 kw = 424.9378435554673 pf=0.92 status=variable vmaxpu=1.5 vminpu=0.93 daily="RES_2_DO"
 
New "Load.BT_830_M1" bus1="UC2488.3.4" phases=1 conn=delta model=2 kv=0.22 kw = 122.69332102657856 pf=0.92 status=variable vmaxpu=1.5 vminpu=0.93 daily="RES_2_DO" 
New "Load.BT_830_M2" bus1="UC2488.3.4" phases=1 conn=delta model=3 kv=0.22 kw = 122.69332102657856 pf=0.92 status=variable vmaxpu=1.5 vminpu=0.93 daily="RES_2_DO"
 
New "Load.BT_1284_M1" bus1="UC14865.2.3.4" phases=2 conn=delta model=2 kv=0.38 kw = 335.6908808885554 pf=0.92 status=variable vmaxpu=1.5 vminpu=0.93 daily="RES_11_DO" 
New "Load.BT_1284_M2" bus1="UC14865.2.3.4" phases=2 conn=delta model=3 kv=0.38 kw = 335.6908808885554 pf=0.92 status=variable vmaxpu=1.5 vminpu=0.93 daily="RES_11_DO"
 
New "Load.BT_7814_M1" bus1="UC15091.1.4" phases=1 conn=delta model=2 kv=0.22 kw = 110.72324092642455 pf=0.92 status=variable vmaxpu=1.5 vminpu=0.93 daily="RES_2_DO" 
New "Load.BT_7814_M2" bus1="UC15091.1.4" phases=1 conn=delta model=3 kv=0.22 kw = 110.72324092642455 pf=0.92 status=variable vmaxpu=1.5 vminpu=0.93 daily="RES_2_DO"
 
New "Load.BT_6653_M1" bus1="UC11683.2.4" phases=1 conn=delta model=2 kv=0.22 kw = 251.37168210323415 pf=0.92 status=variable vmaxpu=1.5 vminpu=0.93 daily="RES_2_DO" 
New "Load.BT_6653_M2" bus1="UC11683.2.4" phases=1 conn=delta model=3 kv=0.22 kw = 251.37168210323415 pf=0.92 status=variable vmaxpu=1.5 vminpu=0.93 daily="RES_2_DO"
 
New "Load.BT_6786_M1" bus1="UC9221.1.4" phases=1 conn=delta model=2 kv=0.22 kw = 275.31184230354216 pf=0.92 status=variable vmaxpu=1.5 vminpu=0.93 daily="RES_2_DO" 
New "Load.BT_6786_M2" bus1="UC9221.1.4" phases=1 conn=delta model=3 kv=0.22 kw = 275.31184230354216 pf=0.92 status=variable vmaxpu=1.5 vminpu=0.93 daily="RES_2_DO"
 
New "Load.BT_7897_M1" bus1="UC3241.3.4" phases=1 conn=delta model=2 kv=0.22 kw = 293.09971867790233 pf=0.92 status=variable vmaxpu=1.5 vminpu=0.93 daily="COM_1_DO" 
New "Load.BT_7897_M2" bus1="UC3241.3.4" phases=1 conn=delta model=3 kv=0.22 kw = 293.09971867790233 pf=0.92 status=variable vmaxpu=1.5 vminpu=0.93 daily="COM_1_DO"
 
New "Load.BT_6905_M1" bus1="UC15112.3.4" phases=1 conn=delta model=2 kv=0.22 kw = 335.5528052783733 pf=0.92 status=variable vmaxpu=1.5 vminpu=0.93 daily="RES_1_DO" 
New "Load.BT_6905_M2" bus1="UC15112.3.4" phases=1 conn=delta model=3 kv=0.22 kw = 335.5528052783733 pf=0.92 status=variable vmaxpu=1.5 vminpu=0.93 daily="RES_1_DO"
 
New "Load.BT_7836_M1" bus1="UC16108.3.4" phases=1 conn=delta model=2 kv=0.22 kw = 64.60053093096275 pf=0.92 status=variable vmaxpu=1.5 vminpu=0.93 daily="RES_7_DO" 
New "Load.BT_7836_M2" bus1="UC16108.3.4" phases=1 conn=delta model=3 kv=0.22 kw = 64.60053093096275 pf=0.92 status=variable vmaxpu=1.5 vminpu=0.93 daily="RES_7_DO"
 
New "Load.BT_2994_M1" bus1="UC20129.3.4" phases=1 conn=delta model=2 kv=0.22 kw = 7.177836770106972 pf=0.92 status=variable vmaxpu=1.5 vminpu=0.93 daily="RES_7_DO" 
New "Load.BT_2994_M2" bus1="UC20129.3.4" phases=1 conn=delta model=3 kv=0.22 kw = 7.177836770106972 pf=0.92 status=variable vmaxpu=1.5 vminpu=0.93 daily="RES_7_DO"
 
New "Load.BT_2600_M1" bus1="UC16111.2.4" phases=1 conn=delta model=2 kv=0.22 kw = 4.785224513404648 pf=0.92 status=variable vmaxpu=1.5 vminpu=0.93 daily="RES_7_DO" 
New "Load.BT_2600_M2" bus1="UC16111.2.4" phases=1 conn=delta model=3 kv=0.22 kw = 4.785224513404648 pf=0.92 status=variable vmaxpu=1.5 vminpu=0.93 daily="RES_7_DO"
 
New "Load.BT_8384_M1" bus1="UC3883.1.4" phases=1 conn=delta model=2 kv=0.22 kw = 0.0 pf=0.92 status=variable vmaxpu=1.5 vminpu=0.93 daily="COM_5_DO" 
New "Load.BT_8384_M2" bus1="UC3883.1.4" phases=1 conn=delta model=3 kv=0.22 kw = 0.0 pf=0.92 status=variable vmaxpu=1.5 vminpu=0.93 daily="COM_5_DO"
 
New "Load.BT_8384_M1" bus1="UC3883.2.4" phases=1 conn=delta model=2 kv=0.22 kw = 19.32133037326975 pf=0.92 status=variable vmaxpu=1.5 vminpu=0.93 daily="COM_5_DO" 
New "Load.BT_8384_M2" bus1="UC3883.2.4" phases=1 conn=delta model=3 kv=0.22 kw = 19.32133037326975 pf=0.92 status=variable vmaxpu=1.5 vminpu=0.93 daily="COM_5_DO"
 
New "Load.BT_2055_M1" bus1="UC4114.1.4" phases=1 conn=delta model=2 kv=0.22 kw = 74.17097995777205 pf=0.92 status=variable vmaxpu=1.5 vminpu=0.93 daily="RES_7_DO" 
New "Load.BT_2055_M2" bus1="UC4114.1.4" phases=1 conn=delta model=3 kv=0.22 kw = 74.17097995777205 pf=0.92 status=variable vmaxpu=1.5 vminpu=0.93 daily="RES_7_DO"
 
New "Load.BT_1547_M1" bus1="UC14453.3.4" phases=1 conn=delta model=2 kv=0.22 kw = 16.748285796916267 pf=0.92 status=variable vmaxpu=1.5 vminpu=0.93 daily="RES_7_DO" 
New "Load.BT_1547_M2" bus1="UC14453.3.4" phases=1 conn=delta model=3 kv=0.22 kw = 16.748285796916267 pf=0.92 status=variable vmaxpu=1.5 vminpu=0.93 daily="RES_7_DO"
 
New "Load.BT_7858_M1" bus1="UC16118.2.4" phases=1 conn=delta model=2 kv=0.22 kw = 409.1366958960974 pf=0.92 status=variable vmaxpu=1.5 vminpu=0.93 daily="RES_7_DO" 
New "Load.BT_7858_M2" bus1="UC16118.2.4" phases=1 conn=delta model=3 kv=0.22 kw = 409.1366958960974 pf=0.92 status=variable vmaxpu=1.5 vminpu=0.93 daily="RES_7_DO"
 
New "Load.BT_2598_M1" bus1="UC15828.2.4" phases=1 conn=delta model=2 kv=0.22 kw = 505.7358842315068 pf=0.92 status=variable vmaxpu=1.5 vminpu=0.93 daily="RES_2_DO" 
New "Load.BT_2598_M2" bus1="UC15828.2.4" phases=1 conn=delta model=3 kv=0.22 kw = 505.7358842315068 pf=0.92 status=variable vmaxpu=1.5 vminpu=0.93 daily="RES_2_DO"
 
New "Load.BT_1076_M1" bus1="UC5746.1.4" phases=1 conn=delta model=2 kv=0.22 kw = 262.9025132654657 pf=0.92 status=variable vmaxpu=1.5 vminpu=0.93 daily="RES_5_DO" 
New "Load.BT_1076_M2" bus1="UC5746.1.4" phases=1 conn=delta model=3 kv=0.22 kw = 262.9025132654657 pf=0.92 status=variable vmaxpu=1.5 vminpu=0.93 daily="RES_5_DO"
 
New "Load.BT_1224_M1" bus1="UC797.2.4" phases=1 conn=delta model=2 kv=0.22 kw = 336.3339169920853 pf=0.92 status=variable vmaxpu=1.5 vminpu=0.93 daily="RES_3_DO" 
New "Load.BT_1224_M2" bus1="UC797.2.4" phases=1 conn=delta model=3 kv=0.22 kw = 336.3339169920853 pf=0.92 status=variable vmaxpu=1.5 vminpu=0.93 daily="RES_3_DO"
 
New "Load.BT_2144_M1" bus1="UC20086.1.4" phases=1 conn=delta model=2 kv=0.22 kw = 616.4591251579313 pf=0.92 status=variable vmaxpu=1.5 vminpu=0.93 daily="RES_2_DO" 
New "Load.BT_2144_M2" bus1="UC20086.1.4" phases=1 conn=delta model=3 kv=0.22 kw = 616.4591251579313 pf=0.92 status=variable vmaxpu=1.5 vminpu=0.93 daily="RES_2_DO"
 
New "Load.BT_618_M1" bus1="UC15794.3.1.4" phases=2 conn=delta model=2 kv=0.38 kw = 586.5339249075463 pf=0.92 status=variable vmaxpu=1.5 vminpu=0.93 daily="RES_2_DO" 
New "Load.BT_618_M2" bus1="UC15794.3.1.4" phases=2 conn=delta model=3 kv=0.38 kw = 586.5339249075463 pf=0.92 status=variable vmaxpu=1.5 vminpu=0.93 daily="RES_2_DO"
 
New "Load.BT_7606_M1" bus1="UC11739.3.4" phases=1 conn=delta model=2 kv=0.22 kw = 0.0 pf=0.92 status=variable vmaxpu=1.5 vminpu=0.93 daily="RES_2_DO" 
New "Load.BT_7606_M2" bus1="UC11739.3.4" phases=1 conn=delta model=3 kv=0.22 kw = 0.0 pf=0.92 status=variable vmaxpu=1.5 vminpu=0.93 daily="RES_2_DO"
 
New "Load.BT_6647_M1" bus1="UC9436.1.4" phases=1 conn=delta model=2 kv=0.22 kw = 338.1547628293507 pf=0.92 status=variable vmaxpu=1.5 vminpu=0.93 daily="RES_2_DO" 
New "Load.BT_6647_M2" bus1="UC9436.1.4" phases=1 conn=delta model=3 kv=0.22 kw = 338.1547628293507 pf=0.92 status=variable vmaxpu=1.5 vminpu=0.93 daily="RES_2_DO"
 
New "Load.BT_1485_M1" bus1="UC15792.1.2.3.4" phases=3 conn=delta model=2 kv=0.38 kw = 939.6512878620896 pf=0.92 status=variable vmaxpu=1.5 vminpu=0.93 daily="RES_2_DO" 
New "Load.BT_1485_M2" bus1="UC15792.1.2.3.4" phases=3 conn=delta model=3 kv=0.38 kw = 939.6512878620896 pf=0.92 status=variable vmaxpu=1.5 vminpu=0.93 daily="RES_2_DO"
 
New "Load.BT_6503_M1" bus1="UC15476.1.4" phases=1 conn=delta model=2 kv=0.22 kw = 389.0276032550052 pf=0.92 status=variable vmaxpu=1.5 vminpu=0.93 daily="RES_2_DO" 
New "Load.BT_6503_M2" bus1="UC15476.1.4" phases=1 conn=delta model=3 kv=0.22 kw = 389.0276032550052 pf=0.92 status=variable vmaxpu=1.5 vminpu=0.93 daily="RES_2_DO"
 
New "Load.BT_7350_M1" bus1="UC20128.1.4" phases=1 conn=delta model=2 kv=0.22 kw = 59.08568812023119 pf=0.92 status=variable vmaxpu=1.5 vminpu=0.93 daily="RES_3_DO" 
New "Load.BT_7350_M2" bus1="UC20128.1.4" phases=1 conn=delta model=3 kv=0.22 kw = 59.08568812023119 pf=0.92 status=variable vmaxpu=1.5 vminpu=0.93 daily="RES_3_DO"
 
New "Load.BT_7853_M1" bus1="UC16098.2.3.4" phases=2 conn=delta model=2 kv=0.38 kw = 40.674408363939506 pf=0.92 status=variable vmaxpu=1.5 vminpu=0.93 daily="RES_7_DO" 
New "Load.BT_7853_M2" bus1="UC16098.2.3.4" phases=2 conn=delta model=3 kv=0.38 kw = 40.674408363939506 pf=0.92 status=variable vmaxpu=1.5 vminpu=0.93 daily="RES_7_DO"
 
New "Load.BT_2823_M1" bus1="UC4516.3.1.4" phases=2 conn=delta model=2 kv=0.38 kw = 590.8568812023119 pf=0.92 status=variable vmaxpu=1.5 vminpu=0.93 daily="RES_3_DO" 
New "Load.BT_2823_M2" bus1="UC4516.3.1.4" phases=2 conn=delta model=3 kv=0.38 kw = 590.8568812023119 pf=0.92 status=variable vmaxpu=1.5 vminpu=0.93 daily="RES_3_DO"
 
New "Load.BT_1088_M1" bus1="UC5634.3.4" phases=1 conn=delta model=2 kv=0.22 kw = 777.2040514276565 pf=0.92 status=variable vmaxpu=1.5 vminpu=0.93 daily="RES_3_DO" 
New "Load.BT_1088_M2" bus1="UC5634.3.4" phases=1 conn=delta model=3 kv=0.22 kw = 777.2040514276565 pf=0.92 status=variable vmaxpu=1.5 vminpu=0.93 daily="RES_3_DO"
 
New "Load.BT_6907_M1" bus1="UC10830.1.4" phases=1 conn=delta model=2 kv=0.22 kw = 114.84538832171155 pf=0.92 status=variable vmaxpu=1.5 vminpu=0.93 daily="RES_7_DO" 
New "Load.BT_6907_M2" bus1="UC10830.1.4" phases=1 conn=delta model=3 kv=0.22 kw = 114.84538832171155 pf=0.92 status=variable vmaxpu=1.5 vminpu=0.93 daily="RES_7_DO"
 
New "Load.BT_2519_M1" bus1="UC15768.1.4" phases=1 conn=delta model=2 kv=0.22 kw = 17.95512015023101 pf=0.92 status=variable vmaxpu=1.5 vminpu=0.93 daily="RES_2_DO" 
New "Load.BT_2519_M2" bus1="UC15768.1.4" phases=1 conn=delta model=3 kv=0.22 kw = 17.95512015023101 pf=0.92 status=variable vmaxpu=1.5 vminpu=0.93 daily="RES_2_DO"
 
New "Load.BT_7950_M1" bus1="UC15770.1.2.4" phases=2 conn=delta model=2 kv=0.38 kw = 739.1524461845099 pf=0.92 status=variable vmaxpu=1.5 vminpu=0.93 daily="RES_2_DO" 
New "Load.BT_7950_M2" bus1="UC15770.1.2.4" phases=2 conn=delta model=3 kv=0.38 kw = 739.1524461845099 pf=0.92 status=variable vmaxpu=1.5 vminpu=0.93 daily="RES_2_DO"
 
New "Load.BT_7736_M1" bus1="UC20080.1.2.4" phases=2 conn=delta model=2 kv=0.38 kw = 182.5437215273486 pf=0.92 status=variable vmaxpu=1.5 vminpu=0.93 daily="RES_2_DO" 
New "Load.BT_7736_M2" bus1="UC20080.1.2.4" phases=2 conn=delta model=3 kv=0.38 kw = 182.5437215273486 pf=0.92 status=variable vmaxpu=1.5 vminpu=0.93 daily="RES_2_DO"
 
New "Load.BT_7736_M1" bus1="UC20078.2.3.4" phases=2 conn=delta model=2 kv=0.38 kw = 460.84808385592925 pf=0.92 status=variable vmaxpu=1.5 vminpu=0.93 daily="RES_2_DO" 