New "Linecode.1_1" nphases=1 basefreq=60 r1="1.3525999784469604" x1=0.4537000060081482 units=km normamps=520.0
New "Linecode.1_2" nphases=2 basefreq=60 r1="1.3525999784469604" x1=0.4537000060081482 units=km normamps=520.0
New "Linecode.1_3" nphases=3 basefreq=60 r1="1.3525999784469604" x1=0.4537000060081482 units=km normamps=520.0
New "Linecode.1_4" nphases=4 basefreq=60 r1="1.3525999784469604" x1=0.4537000060081482 units=km normamps=520.0

New "Linecode.1_P" nphases=1 basefreq=60 r1="1.3525999784469604" x1=0.4537000060081482 units=km normamps=520.0
New "Linecode.1_P" nphases=2 basefreq=60 r1="1.3525999784469604" x1=0.4537000060081482 units=km normamps=520.0
New "Linecode.1_P" nphases=3 basefreq=60 r1="1.3525999784469604" x1=0.4537000060081482 units=km normamps=520.0
New "Linecode.1_P" nphases=4 basefreq=60 r1="1.3525999784469604" x1=0.4537000060081482 units=km normamps=520.0

New "Linecode.2_1" nphases=1 basefreq=60 r1="2.1531999111175537" x1=0.47119998931884766 units=km normamps=520.0
New "Linecode.2_2" nphases=2 basefreq=60 r1="2.1531999111175537" x1=0.47119998931884766 units=km normamps=520.0
New "Linecode.2_3" nphases=3 basefreq=60 r1="2.1531999111175537" x1=0.47119998931884766 units=km normamps=520.0
New "Linecode.2_4" nphases=4 basefreq=60 r1="2.1531999111175537" x1=0.47119998931884766 units=km normamps=520.0

New "Linecode.2_P" nphases=1 basefreq=60 r1="2.1531999111175537" x1=0.47119998931884766 units=km normamps=520.0
New "Linecode.2_P" nphases=2 basefreq=60 r1="2.1531999111175537" x1=0.47119998931884766 units=km normamps=520.0
New "Linecode.2_P" nphases=3 basefreq=60 r1="2.1531999111175537" x1=0.47119998931884766 units=km normamps=520.0
New "Linecode.2_P" nphases=4 basefreq=60 r1="2.1531999111175537" x1=0.47119998931884766 units=km normamps=520.0

New "Linecode.3_1" nphases=1 basefreq=60 r1="0.5681999921798706" x1=0.2919999957084656 units=km normamps=520.0
New "Linecode.3_2" nphases=2 basefreq=60 r1="0.5681999921798706" x1=0.2919999957084656 units=km normamps=520.0
New "Linecode.3_3" nphases=3 basefreq=60 r1="0.5681999921798706" x1=0.2919999957084656 units=km normamps=520.0
New "Linecode.3_4" nphases=4 basefreq=60 r1="0.5681999921798706" x1=0.2919999957084656 units=km normamps=520.0

New "Linecode.3_P" nphases=1 basefreq=60 r1="0.5681999921798706" x1=0.2919999957084656 units=km normamps=520.0
New "Linecode.3_P" nphases=2 basefreq=60 r1="0.5681999921798706" x1=0.2919999957084656 units=km normamps=520.0
New "Linecode.3_P" nphases=3 basefreq=60 r1="0.5681999921798706" x1=0.2919999957084656 units=km normamps=520.0
New "Linecode.3_P" nphases=4 basefreq=60 r1="0.5681999921798706" x1=0.2919999957084656 units=km normamps=520.0

New "Linecode.4_1" nphases=1 basefreq=60 r1="1.0714000463485718" x1=0.4449000060558319 units=km normamps=520.0
New "Linecode.4_2" nphases=2 basefreq=60 r1="1.0714000463485718" x1=0.4449000060558319 units=km normamps=520.0
New "Linecode.4_3" nphases=3 basefreq=60 r1="1.0714000463485718" x1=0.4449000060558319 units=km normamps=520.0
New "Linecode.4_4" nphases=4 basefreq=60 r1="1.0714000463485718" x1=0.4449000060558319 units=km normamps=520.0

New "Linecode.4_P" nphases=1 basefreq=60 r1="1.0714000463485718" x1=0.4449000060558319 units=km normamps=520.0
New "Linecode.4_P" nphases=2 basefreq=60 r1="1.0714000463485718" x1=0.4449000060558319 units=km normamps=520.0
New "Linecode.4_P" nphases=3 basefreq=60 r1="1.0714000463485718" x1=0.4449000060558319 units=km normamps=520.0
New "Linecode.4_P" nphases=4 basefreq=60 r1="1.0714000463485718" x1=0.4449000060558319 units=km normamps=520.0

New "Linecode.6_1" nphases=1 basefreq=60 r1="0.5339999794960022" x1=0.4185999929904938 units=km normamps=520.0
New "Linecode.6_2" nphases=2 basefreq=60 r1="0.5339999794960022" x1=0.4185999929904938 units=km normamps=520.0
New "Linecode.6_3" nphases=3 basefreq=60 r1="0.5339999794960022" x1=0.4185999929904938 units=km normamps=520.0
New "Linecode.6_4" nphases=4 basefreq=60 r1="0.5339999794960022" x1=0.4185999929904938 units=km normamps=520.0

New "Linecode.6_P" nphases=1 basefreq=60 r1="0.5339999794960022" x1=0.4185999929904938 units=km normamps=520.0
New "Linecode.6_P" nphases=2 basefreq=60 r1="0.5339999794960022" x1=0.4185999929904938 units=km normamps=520.0
New "Linecode.6_P" nphases=3 basefreq=60 r1="0.5339999794960022" x1=0.4185999929904938 units=km normamps=520.0
New "Linecode.6_P" nphases=4 basefreq=60 r1="0.5339999794960022" x1=0.4185999929904938 units=km normamps=520.0

New "Linecode.7_1" nphases=1 basefreq=60 r1="0.8539999723434448" x1=0.44620001316070557 units=km normamps=520.0
New "Linecode.7_2" nphases=2 basefreq=60 r1="0.8539999723434448" x1=0.44620001316070557 units=km normamps=520.0
New "Linecode.7_3" nphases=3 basefreq=60 r1="0.8539999723434448" x1=0.44620001316070557 units=km normamps=520.0
New "Linecode.7_4" nphases=4 basefreq=60 r1="0.8539999723434448" x1=0.44620001316070557 units=km normamps=520.0

New "Linecode.7_P" nphases=1 basefreq=60 r1="0.8539999723434448" x1=0.44620001316070557 units=km normamps=520.0
New "Linecode.7_P" nphases=2 basefreq=60 r1="0.8539999723434448" x1=0.44620001316070557 units=km normamps=520.0
New "Linecode.7_P" nphases=3 basefreq=60 r1="0.8539999723434448" x1=0.44620001316070557 units=km normamps=520.0
New "Linecode.7_P" nphases=4 basefreq=60 r1="0.8539999723434448" x1=0.44620001316070557 units=km normamps=520.0

New "Linecode.9_1" nphases=1 basefreq=60 r1="1.3525999784469604" x1=0.4537000060081482 units=km normamps=520.0
New "Linecode.9_2" nphases=2 basefreq=60 r1="1.3525999784469604" x1=0.4537000060081482 units=km normamps=520.0
New "Linecode.9_3" nphases=3 basefreq=60 r1="1.3525999784469604" x1=0.4537000060081482 units=km normamps=520.0
New "Linecode.9_4" nphases=4 basefreq=60 r1="1.3525999784469604" x1=0.4537000060081482 units=km normamps=520.0

New "Linecode.9_P" nphases=1 basefreq=60 r1="1.3525999784469604" x1=0.4537000060081482 units=km normamps=520.0
New "Linecode.9_P" nphases=2 basefreq=60 r1="1.3525999784469604" x1=0.4537000060081482 units=km normamps=520.0
New "Linecode.9_P" nphases=3 basefreq=60 r1="1.3525999784469604" x1=0.4537000060081482 units=km normamps=520.0
New "Linecode.9_P" nphases=4 basefreq=60 r1="1.3525999784469604" x1=0.4537000060081482 units=km normamps=520.0

New "Linecode.10_1" nphases=1 basefreq=60 r1="1.3525999784469604" x1=0.4537000060081482 units=km normamps=520.0
New "Linecode.10_2" nphases=2 basefreq=60 r1="1.3525999784469604" x1=0.4537000060081482 units=km normamps=520.0
New "Linecode.10_3" nphases=3 basefreq=60 r1="1.3525999784469604" x1=0.4537000060081482 units=km normamps=520.0
New "Linecode.10_4" nphases=4 basefreq=60 r1="1.3525999784469604" x1=0.4537000060081482 units=km normamps=520.0

New "Linecode.10_P" nphases=1 basefreq=60 r1="1.3525999784469604" x1=0.4537000060081482 units=km normamps=520.0
New "Linecode.10_P" nphases=2 basefreq=60 r1="1.3525999784469604" x1=0.4537000060081482 units=km normamps=520.0
New "Linecode.10_P" nphases=3 basefreq=60 r1="1.3525999784469604" x1=0.4537000060081482 units=km normamps=520.0
New "Linecode.10_P" nphases=4 basefreq=60 r1="1.3525999784469604" x1=0.4537000060081482 units=km normamps=520.0

New "Linecode.11_1" nphases=1 basefreq=60 r1="0.5339999794960022" x1=0.4185999929904938 units=km normamps=520.0
New "Linecode.11_2" nphases=2 basefreq=60 r1="0.5339999794960022" x1=0.4185999929904938 units=km normamps=520.0
New "Linecode.11_3" nphases=3 basefreq=60 r1="0.5339999794960022" x1=0.4185999929904938 units=km normamps=520.0
New "Linecode.11_4" nphases=4 basefreq=60 r1="0.5339999794960022" x1=0.4185999929904938 units=km normamps=520.0

New "Linecode.11_P" nphases=1 basefreq=60 r1="0.5339999794960022" x1=0.4185999929904938 units=km normamps=520.0
New "Linecode.11_P" nphases=2 basefreq=60 r1="0.5339999794960022" x1=0.4185999929904938 units=km normamps=520.0
New "Linecode.11_P" nphases=3 basefreq=60 r1="0.5339999794960022" x1=0.4185999929904938 units=km normamps=520.0
New "Linecode.11_P" nphases=4 basefreq=60 r1="0.5339999794960022" x1=0.4185999929904938 units=km normamps=520.0

New "Linecode.12_1" nphases=1 basefreq=60 r1="0.33640000224113464" x1=0.40119999647140503 units=km normamps=520.0
New "Linecode.12_2" nphases=2 basefreq=60 r1="0.33640000224113464" x1=0.40119999647140503 units=km normamps=520.0
New "Linecode.12_3" nphases=3 basefreq=60 r1="0.33640000224113464" x1=0.40119999647140503 units=km normamps=520.0
New "Linecode.12_4" nphases=4 basefreq=60 r1="0.33640000224113464" x1=0.40119999647140503 units=km normamps=520.0

New "Linecode.12_P" nphases=1 basefreq=60 r1="0.33640000224113464" x1=0.40119999647140503 units=km normamps=520.0
New "Linecode.12_P" nphases=2 basefreq=60 r1="0.33640000224113464" x1=0.40119999647140503 units=km normamps=520.0
New "Linecode.12_P" nphases=3 basefreq=60 r1="0.33640000224113464" x1=0.40119999647140503 units=km normamps=520.0
New "Linecode.12_P" nphases=4 basefreq=60 r1="0.33640000224113464" x1=0.40119999647140503 units=km normamps=520.0

New "Linecode.13_1" nphases=1 basefreq=60 r1="0.8500000238418579" x1=0.43619999289512634 units=km normamps=520.0
New "Linecode.13_2" nphases=2 basefreq=60 r1="0.8500000238418579" x1=0.43619999289512634 units=km normamps=520.0
New "Linecode.13_3" nphases=3 basefreq=60 r1="0.8500000238418579" x1=0.43619999289512634 units=km normamps=520.0
New "Linecode.13_4" nphases=4 basefreq=60 r1="0.8500000238418579" x1=0.43619999289512634 units=km normamps=520.0

New "Linecode.13_P" nphases=1 basefreq=60 r1="0.8500000238418579" x1=0.43619999289512634 units=km normamps=520.0
New "Linecode.13_P" nphases=2 basefreq=60 r1="0.8500000238418579" x1=0.43619999289512634 units=km normamps=520.0
New "Linecode.13_P" nphases=3 basefreq=60 r1="0.8500000238418579" x1=0.43619999289512634 units=km normamps=520.0
New "Linecode.13_P" nphases=4 basefreq=60 r1="0.8500000238418579" x1=0.43619999289512634 units=km normamps=520.0

New "Linecode.14_1" nphases=1 basefreq=60 r1="0.8539999723434448" x1=0.44620001316070557 units=km normamps=520.0
New "Linecode.14_2" nphases=2 basefreq=60 r1="0.8539999723434448" x1=0.44620001316070557 units=km normamps=520.0
New "Linecode.14_3" nphases=3 basefreq=60 r1="0.8539999723434448" x1=0.44620001316070557 units=km normamps=520.0
New "Linecode.14_4" nphases=4 basefreq=60 r1="0.8539999723434448" x1=0.44620001316070557 units=km normamps=520.0

New "Linecode.14_P" nphases=1 basefreq=60 r1="0.8539999723434448" x1=0.44620001316070557 units=km normamps=520.0
New "Linecode.14_P" nphases=2 basefreq=60 r1="0.8539999723434448" x1=0.44620001316070557 units=km normamps=520.0
New "Linecode.14_P" nphases=3 basefreq=60 r1="0.8539999723434448" x1=0.44620001316070557 units=km normamps=520.0
New "Linecode.14_P" nphases=4 basefreq=60 r1="0.8539999723434448" x1=0.44620001316070557 units=km normamps=520.0

New "Linecode.15_1" nphases=1 basefreq=60 r1="2.6512999534606934" x1=2.0969998836517334 units=km normamps=520.0
New "Linecode.15_2" nphases=2 basefreq=60 r1="2.6512999534606934" x1=2.0969998836517334 units=km normamps=520.0
New "Linecode.15_3" nphases=3 basefreq=60 r1="2.6512999534606934" x1=2.0969998836517334 units=km normamps=520.0
New "Linecode.15_4" nphases=4 basefreq=60 r1="2.6512999534606934" x1=2.0969998836517334 units=km normamps=520.0

New "Linecode.15_P" nphases=1 basefreq=60 r1="2.6512999534606934" x1=2.0969998836517334 units=km normamps=520.0
New "Linecode.15_P" nphases=2 basefreq=60 r1="2.6512999534606934" x1=2.0969998836517334 units=km normamps=520.0
New "Linecode.15_P" nphases=3 basefreq=60 r1="2.6512999534606934" x1=2.0969998836517334 units=km normamps=520.0
New "Linecode.15_P" nphases=4 basefreq=60 r1="2.6512999534606934" x1=2.0969998836517334 units=km normamps=520.0

New "Linecode.16_1" nphases=1 basefreq=60 r1="0.5339999794960022" x1=0.4185999929904938 units=km normamps=520.0
New "Linecode.16_2" nphases=2 basefreq=60 r1="0.5339999794960022" x1=0.4185999929904938 units=km normamps=520.0
New "Linecode.16_3" nphases=3 basefreq=60 r1="0.5339999794960022" x1=0.4185999929904938 units=km normamps=520.0
New "Linecode.16_4" nphases=4 basefreq=60 r1="0.5339999794960022" x1=0.4185999929904938 units=km normamps=520.0

New "Linecode.16_P" nphases=1 basefreq=60 r1="0.5339999794960022" x1=0.4185999929904938 units=km normamps=520.0
New "Linecode.16_P" nphases=2 basefreq=60 r1="0.5339999794960022" x1=0.4185999929904938 units=km normamps=520.0
New "Linecode.16_P" nphases=3 basefreq=60 r1="0.5339999794960022" x1=0.4185999929904938 units=km normamps=520.0
New "Linecode.16_P" nphases=4 basefreq=60 r1="0.5339999794960022" x1=0.4185999929904938 units=km normamps=520.0

New "Linecode.17_1" nphases=1 basefreq=60 r1="0.4242999851703644" x1=0.4099999964237213 units=km normamps=520.0
New "Linecode.17_2" nphases=2 basefreq=60 r1="0.4242999851703644" x1=0.4099999964237213 units=km normamps=520.0
New "Linecode.17_3" nphases=3 basefreq=60 r1="0.4242999851703644" x1=0.4099999964237213 units=km normamps=520.0
New "Linecode.17_4" nphases=4 basefreq=60 r1="0.4242999851703644" x1=0.4099999964237213 units=km normamps=520.0

New "Linecode.17_P" nphases=1 basefreq=60 r1="0.4242999851703644" x1=0.4099999964237213 units=km normamps=520.0
New "Linecode.17_P" nphases=2 basefreq=60 r1="0.4242999851703644" x1=0.4099999964237213 units=km normamps=520.0
New "Linecode.17_P" nphases=3 basefreq=60 r1="0.4242999851703644" x1=0.4099999964237213 units=km normamps=520.0
New "Linecode.17_P" nphases=4 basefreq=60 r1="0.4242999851703644" x1=0.4099999964237213 units=km normamps=520.0

New "Linecode.18_1" nphases=1 basefreq=60 r1="1.3525999784469604" x1=0.4537000060081482 units=km normamps=520.0
New "Linecode.18_2" nphases=2 basefreq=60 r1="1.3525999784469604" x1=0.4537000060081482 units=km normamps=520.0
New "Linecode.18_3" nphases=3 basefreq=60 r1="1.3525999784469604" x1=0.4537000060081482 units=km normamps=520.0
New "Linecode.18_4" nphases=4 basefreq=60 r1="1.3525999784469604" x1=0.4537000060081482 units=km normamps=520.0

New "Linecode.18_P" nphases=1 basefreq=60 r1="1.3525999784469604" x1=0.4537000060081482 units=km normamps=520.0
New "Linecode.18_P" nphases=2 basefreq=60 r1="1.3525999784469604" x1=0.4537000060081482 units=km normamps=520.0
New "Linecode.18_P" nphases=3 basefreq=60 r1="1.3525999784469604" x1=0.4537000060081482 units=km normamps=520.0
New "Linecode.18_P" nphases=4 basefreq=60 r1="1.3525999784469604" x1=0.4537000060081482 units=km normamps=520.0

New "Linecode.19_1" nphases=1 basefreq=60 r1="0.4242999851703644" x1=0.4099999964237213 units=km normamps=520.0
New "Linecode.19_2" nphases=2 basefreq=60 r1="0.4242999851703644" x1=0.4099999964237213 units=km normamps=520.0
New "Linecode.19_3" nphases=3 basefreq=60 r1="0.4242999851703644" x1=0.4099999964237213 units=km normamps=520.0
New "Linecode.19_4" nphases=4 basefreq=60 r1="0.4242999851703644" x1=0.4099999964237213 units=km normamps=520.0

New "Linecode.19_P" nphases=1 basefreq=60 r1="0.4242999851703644" x1=0.4099999964237213 units=km normamps=520.0
New "Linecode.19_P" nphases=2 basefreq=60 r1="0.4242999851703644" x1=0.4099999964237213 units=km normamps=520.0
New "Linecode.19_P" nphases=3 basefreq=60 r1="0.4242999851703644" x1=0.4099999964237213 units=km normamps=520.0
New "Linecode.19_P" nphases=4 basefreq=60 r1="0.4242999851703644" x1=0.4099999964237213 units=km normamps=520.0

New "Linecode.20_1" nphases=1 basefreq=60 r1="1.0770000219345093" x1=0.45500001311302185 units=km normamps=520.0
New "Linecode.20_2" nphases=2 basefreq=60 r1="1.0770000219345093" x1=0.45500001311302185 units=km normamps=520.0
New "Linecode.20_3" nphases=3 basefreq=60 r1="1.0770000219345093" x1=0.45500001311302185 units=km normamps=520.0
New "Linecode.20_4" nphases=4 basefreq=60 r1="1.0770000219345093" x1=0.45500001311302185 units=km normamps=520.0

New "Linecode.20_P" nphases=1 basefreq=60 r1="1.0770000219345093" x1=0.45500001311302185 units=km normamps=520.0
New "Linecode.20_P" nphases=2 basefreq=60 r1="1.0770000219345093" x1=0.45500001311302185 units=km normamps=520.0
New "Linecode.20_P" nphases=3 basefreq=60 r1="1.0770000219345093" x1=0.45500001311302185 units=km normamps=520.0
New "Linecode.20_P" nphases=4 basefreq=60 r1="1.0770000219345093" x1=0.45500001311302185 units=km normamps=520.0

New "Linecode.21_1" nphases=1 basefreq=60 r1="0.8500000238418579" x1=0.43619999289512634 units=km normamps=520.0
New "Linecode.21_2" nphases=2 basefreq=60 r1="0.8500000238418579" x1=0.43619999289512634 units=km normamps=520.0
New "Linecode.21_3" nphases=3 basefreq=60 r1="0.8500000238418579" x1=0.43619999289512634 units=km normamps=520.0
New "Linecode.21_4" nphases=4 basefreq=60 r1="0.8500000238418579" x1=0.43619999289512634 units=km normamps=520.0

New "Linecode.21_P" nphases=1 basefreq=60 r1="0.8500000238418579" x1=0.43619999289512634 units=km normamps=520.0
New "Linecode.21_P" nphases=2 basefreq=60 r1="0.8500000238418579" x1=0.43619999289512634 units=km normamps=520.0
New "Linecode.21_P" nphases=3 basefreq=60 r1="0.8500000238418579" x1=0.43619999289512634 units=km normamps=520.0
New "Linecode.21_P" nphases=4 basefreq=60 r1="0.8500000238418579" x1=0.43619999289512634 units=km normamps=520.0

New "Linecode.22_1" nphases=1 basefreq=60 r1="0.5681999921798706" x1=0.2919999957084656 units=km normamps=520.0
New "Linecode.22_2" nphases=2 basefreq=60 r1="0.5681999921798706" x1=0.2919999957084656 units=km normamps=520.0
New "Linecode.22_3" nphases=3 basefreq=60 r1="0.5681999921798706" x1=0.2919999957084656 units=km normamps=520.0
New "Linecode.22_4" nphases=4 basefreq=60 r1="0.5681999921798706" x1=0.2919999957084656 units=km normamps=520.0

New "Linecode.22_P" nphases=1 basefreq=60 r1="0.5681999921798706" x1=0.2919999957084656 units=km normamps=520.0
New "Linecode.22_P" nphases=2 basefreq=60 r1="0.5681999921798706" x1=0.2919999957084656 units=km normamps=520.0
New "Linecode.22_P" nphases=3 basefreq=60 r1="0.5681999921798706" x1=0.2919999957084656 units=km normamps=520.0
New "Linecode.22_P" nphases=4 basefreq=60 r1="0.5681999921798706" x1=0.2919999957084656 units=km normamps=520.0

New "Linecode.23_1" nphases=1 basefreq=60 r1="1.3525999784469604" x1=0.4537000060081482 units=km normamps=520.0
New "Linecode.23_2" nphases=2 basefreq=60 r1="1.3525999784469604" x1=0.4537000060081482 units=km normamps=520.0
New "Linecode.23_3" nphases=3 basefreq=60 r1="1.3525999784469604" x1=0.4537000060081482 units=km normamps=520.0
New "Linecode.23_4" nphases=4 basefreq=60 r1="1.3525999784469604" x1=0.4537000060081482 units=km normamps=520.0

New "Linecode.23_P" nphases=1 basefreq=60 r1="1.3525999784469604" x1=0.4537000060081482 units=km normamps=520.0
New "Linecode.23_P" nphases=2 basefreq=60 r1="1.3525999784469604" x1=0.4537000060081482 units=km normamps=520.0
New "Linecode.23_P" nphases=3 basefreq=60 r1="1.3525999784469604" x1=0.4537000060081482 units=km normamps=520.0
New "Linecode.23_P" nphases=4 basefreq=60 r1="1.3525999784469604" x1=0.4537000060081482 units=km normamps=520.0

New "Linecode.25_1" nphases=1 basefreq=60 r1="0.33640000224113464" x1=0.40119999647140503 units=km normamps=520.0
New "Linecode.25_2" nphases=2 basefreq=60 r1="0.33640000224113464" x1=0.40119999647140503 units=km normamps=520.0
New "Linecode.25_3" nphases=3 basefreq=60 r1="0.33640000224113464" x1=0.40119999647140503 units=km normamps=520.0
New "Linecode.25_4" nphases=4 basefreq=60 r1="0.33640000224113464" x1=0.40119999647140503 units=km normamps=520.0

New "Linecode.25_P" nphases=1 basefreq=60 r1="0.33640000224113464" x1=0.40119999647140503 units=km normamps=520.0
New "Linecode.25_P" nphases=2 basefreq=60 r1="0.33640000224113464" x1=0.40119999647140503 units=km normamps=520.0
New "Linecode.25_P" nphases=3 basefreq=60 r1="0.33640000224113464" x1=0.40119999647140503 units=km normamps=520.0
New "Linecode.25_P" nphases=4 basefreq=60 r1="0.33640000224113464" x1=0.40119999647140503 units=km normamps=520.0

New "Linecode.27_1" nphases=1 basefreq=60 r1="2.1531999111175537" x1=0.47119998931884766 units=km normamps=520.0
New "Linecode.27_2" nphases=2 basefreq=60 r1="2.1531999111175537" x1=0.47119998931884766 units=km normamps=520.0
New "Linecode.27_3" nphases=3 basefreq=60 r1="2.1531999111175537" x1=0.47119998931884766 units=km normamps=520.0
New "Linecode.27_4" nphases=4 basefreq=60 r1="2.1531999111175537" x1=0.47119998931884766 units=km normamps=520.0

New "Linecode.27_P" nphases=1 basefreq=60 r1="2.1531999111175537" x1=0.47119998931884766 units=km normamps=520.0
New "Linecode.27_P" nphases=2 basefreq=60 r1="2.1531999111175537" x1=0.47119998931884766 units=km normamps=520.0
New "Linecode.27_P" nphases=3 basefreq=60 r1="2.1531999111175537" x1=0.47119998931884766 units=km normamps=520.0
New "Linecode.27_P" nphases=4 basefreq=60 r1="2.1531999111175537" x1=0.47119998931884766 units=km normamps=520.0

New "Linecode.28_1" nphases=1 basefreq=60 r1="0.4242999851703644" x1=0.4099999964237213 units=km normamps=520.0
New "Linecode.28_2" nphases=2 basefreq=60 r1="0.4242999851703644" x1=0.4099999964237213 units=km normamps=520.0
New "Linecode.28_3" nphases=3 basefreq=60 r1="0.4242999851703644" x1=0.4099999964237213 units=km normamps=520.0
New "Linecode.28_4" nphases=4 basefreq=60 r1="0.4242999851703644" x1=0.4099999964237213 units=km normamps=520.0

New "Linecode.28_P" nphases=1 basefreq=60 r1="0.4242999851703644" x1=0.4099999964237213 units=km normamps=520.0
New "Linecode.28_P" nphases=2 basefreq=60 r1="0.4242999851703644" x1=0.4099999964237213 units=km normamps=520.0
New "Linecode.28_P" nphases=3 basefreq=60 r1="0.4242999851703644" x1=0.4099999964237213 units=km normamps=520.0
New "Linecode.28_P" nphases=4 basefreq=60 r1="0.4242999851703644" x1=0.4099999964237213 units=km normamps=520.0

New "Linecode.29_1" nphases=1 basefreq=60 r1="0.8500000238418579" x1=0.43619999289512634 units=km normamps=520.0
New "Linecode.29_2" nphases=2 basefreq=60 r1="0.8500000238418579" x1=0.43619999289512634 units=km normamps=520.0
New "Linecode.29_3" nphases=3 basefreq=60 r1="0.8500000238418579" x1=0.43619999289512634 units=km normamps=520.0
New "Linecode.29_4" nphases=4 basefreq=60 r1="0.8500000238418579" x1=0.43619999289512634 units=km normamps=520.0

New "Linecode.29_P" nphases=1 basefreq=60 r1="0.8500000238418579" x1=0.43619999289512634 units=km normamps=520.0
New "Linecode.29_P" nphases=2 basefreq=60 r1="0.8500000238418579" x1=0.43619999289512634 units=km normamps=520.0
New "Linecode.29_P" nphases=3 basefreq=60 r1="0.8500000238418579" x1=0.43619999289512634 units=km normamps=520.0
New "Linecode.29_P" nphases=4 basefreq=60 r1="0.8500000238418579" x1=0.43619999289512634 units=km normamps=520.0

New "Linecode.30_1" nphases=1 basefreq=60 r1="1.0770000219345093" x1=0.45500001311302185 units=km normamps=520.0
New "Linecode.30_2" nphases=2 basefreq=60 r1="1.0770000219345093" x1=0.45500001311302185 units=km normamps=520.0
New "Linecode.30_3" nphases=3 basefreq=60 r1="1.0770000219345093" x1=0.45500001311302185 units=km normamps=520.0
New "Linecode.30_4" nphases=4 basefreq=60 r1="1.0770000219345093" x1=0.45500001311302185 units=km normamps=520.0

New "Linecode.30_P" nphases=1 basefreq=60 r1="1.0770000219345093" x1=0.45500001311302185 units=km normamps=520.0
New "Linecode.30_P" nphases=2 basefreq=60 r1="1.0770000219345093" x1=0.45500001311302185 units=km normamps=520.0
New "Linecode.30_P" nphases=3 basefreq=60 r1="1.0770000219345093" x1=0.45500001311302185 units=km normamps=520.0
New "Linecode.30_P" nphases=4 basefreq=60 r1="1.0770000219345093" x1=0.45500001311302185 units=km normamps=520.0

New "Linecode.31_1" nphases=1 basefreq=60 r1="0.5681999921798706" x1=0.2919999957084656 units=km normamps=520.0
New "Linecode.31_2" nphases=2 basefreq=60 r1="0.5681999921798706" x1=0.2919999957084656 units=km normamps=520.0
New "Linecode.31_3" nphases=3 basefreq=60 r1="0.5681999921798706" x1=0.2919999957084656 units=km normamps=520.0
New "Linecode.31_4" nphases=4 basefreq=60 r1="0.5681999921798706" x1=0.2919999957084656 units=km normamps=520.0

New "Linecode.31_P" nphases=1 basefreq=60 r1="0.5681999921798706" x1=0.2919999957084656 units=km normamps=520.0
New "Linecode.31_P" nphases=2 basefreq=60 r1="0.5681999921798706" x1=0.2919999957084656 units=km normamps=520.0
New "Linecode.31_P" nphases=3 basefreq=60 r1="0.5681999921798706" x1=0.2919999957084656 units=km normamps=520.0
New "Linecode.31_P" nphases=4 basefreq=60 r1="0.5681999921798706" x1=0.2919999957084656 units=km normamps=520.0

New "Linecode.32_1" nphases=1 basefreq=60 r1="0.8500000238418579" x1=0.43619999289512634 units=km normamps=520.0
New "Linecode.32_2" nphases=2 basefreq=60 r1="0.8500000238418579" x1=0.43619999289512634 units=km normamps=520.0
New "Linecode.32_3" nphases=3 basefreq=60 r1="0.8500000238418579" x1=0.43619999289512634 units=km normamps=520.0
New "Linecode.32_4" nphases=4 basefreq=60 r1="0.8500000238418579" x1=0.43619999289512634 units=km normamps=520.0

New "Linecode.32_P" nphases=1 basefreq=60 r1="0.8500000238418579" x1=0.43619999289512634 units=km normamps=520.0
New "Linecode.32_P" nphases=2 basefreq=60 r1="0.8500000238418579" x1=0.43619999289512634 units=km normamps=520.0
New "Linecode.32_P" nphases=3 basefreq=60 r1="0.8500000238418579" x1=0.43619999289512634 units=km normamps=520.0
New "Linecode.32_P" nphases=4 basefreq=60 r1="0.8500000238418579" x1=0.43619999289512634 units=km normamps=520.0

New "Linecode.33_1" nphases=1 basefreq=60 r1="0.26669999957084656" x1=0.39250001311302185 units=km normamps=520.0
New "Linecode.33_2" nphases=2 basefreq=60 r1="0.26669999957084656" x1=0.39250001311302185 units=km normamps=520.0
New "Linecode.33_3" nphases=3 basefreq=60 r1="0.26669999957084656" x1=0.39250001311302185 units=km normamps=520.0
New "Linecode.33_4" nphases=4 basefreq=60 r1="0.26669999957084656" x1=0.39250001311302185 units=km normamps=520.0

New "Linecode.33_P" nphases=1 basefreq=60 r1="0.26669999957084656" x1=0.39250001311302185 units=km normamps=520.0
New "Linecode.33_P" nphases=2 basefreq=60 r1="0.26669999957084656" x1=0.39250001311302185 units=km normamps=520.0
New "Linecode.33_P" nphases=3 basefreq=60 r1="0.26669999957084656" x1=0.39250001311302185 units=km normamps=520.0
New "Linecode.33_P" nphases=4 basefreq=60 r1="0.26669999957084656" x1=0.39250001311302185 units=km normamps=520.0

New "Linecode.34_1" nphases=1 basefreq=60 r1="1.3593000173568726" x1=0.46380001306533813 units=km normamps=520.0
New "Linecode.34_2" nphases=2 basefreq=60 r1="1.3593000173568726" x1=0.46380001306533813 units=km normamps=520.0
New "Linecode.34_3" nphases=3 basefreq=60 r1="1.3593000173568726" x1=0.46380001306533813 units=km normamps=520.0
New "Linecode.34_4" nphases=4 basefreq=60 r1="1.3593000173568726" x1=0.46380001306533813 units=km normamps=520.0

New "Linecode.34_P" nphases=1 basefreq=60 r1="1.3593000173568726" x1=0.46380001306533813 units=km normamps=520.0
New "Linecode.34_P" nphases=2 basefreq=60 r1="1.3593000173568726" x1=0.46380001306533813 units=km normamps=520.0
New "Linecode.34_P" nphases=3 basefreq=60 r1="1.3593000173568726" x1=0.46380001306533813 units=km normamps=520.0
New "Linecode.34_P" nphases=4 basefreq=60 r1="1.3593000173568726" x1=0.46380001306533813 units=km normamps=520.0

New "Linecode.35_1" nphases=1 basefreq=60 r1="1.3525999784469604" x1=0.4537000060081482 units=km normamps=520.0
New "Linecode.35_2" nphases=2 basefreq=60 r1="1.3525999784469604" x1=0.4537000060081482 units=km normamps=520.0
New "Linecode.35_3" nphases=3 basefreq=60 r1="1.3525999784469604" x1=0.4537000060081482 units=km normamps=520.0
New "Linecode.35_4" nphases=4 basefreq=60 r1="1.3525999784469604" x1=0.4537000060081482 units=km normamps=520.0

New "Linecode.35_P" nphases=1 basefreq=60 r1="1.3525999784469604" x1=0.4537000060081482 units=km normamps=520.0
New "Linecode.35_P" nphases=2 basefreq=60 r1="1.3525999784469604" x1=0.4537000060081482 units=km normamps=520.0
New "Linecode.35_P" nphases=3 basefreq=60 r1="1.3525999784469604" x1=0.4537000060081482 units=km normamps=520.0
New "Linecode.35_P" nphases=4 basefreq=60 r1="1.3525999784469604" x1=0.4537000060081482 units=km normamps=520.0

New "Linecode.36_1" nphases=1 basefreq=60 r1="0.26669999957084656" x1=0.39250001311302185 units=km normamps=520.0
New "Linecode.36_2" nphases=2 basefreq=60 r1="0.26669999957084656" x1=0.39250001311302185 units=km normamps=520.0
New "Linecode.36_3" nphases=3 basefreq=60 r1="0.26669999957084656" x1=0.39250001311302185 units=km normamps=520.0
New "Linecode.36_4" nphases=4 basefreq=60 r1="0.26669999957084656" x1=0.39250001311302185 units=km normamps=520.0

New "Linecode.36_P" nphases=1 basefreq=60 r1="0.26669999957084656" x1=0.39250001311302185 units=km normamps=520.0
New "Linecode.36_P" nphases=2 basefreq=60 r1="0.26669999957084656" x1=0.39250001311302185 units=km normamps=520.0
New "Linecode.36_P" nphases=3 basefreq=60 r1="0.26669999957084656" x1=0.39250001311302185 units=km normamps=520.0
New "Linecode.36_P" nphases=4 basefreq=60 r1="0.26669999957084656" x1=0.39250001311302185 units=km normamps=520.0

New "Linecode.37_1" nphases=1 basefreq=60 r1="1.0714000463485718" x1=0.4449000060558319 units=km normamps=520.0
New "Linecode.37_2" nphases=2 basefreq=60 r1="1.0714000463485718" x1=0.4449000060558319 units=km normamps=520.0
New "Linecode.37_3" nphases=3 basefreq=60 r1="1.0714000463485718" x1=0.4449000060558319 units=km normamps=520.0
New "Linecode.37_4" nphases=4 basefreq=60 r1="1.0714000463485718" x1=0.4449000060558319 units=km normamps=520.0

New "Linecode.37_P" nphases=1 basefreq=60 r1="1.0714000463485718" x1=0.4449000060558319 units=km normamps=520.0
New "Linecode.37_P" nphases=2 basefreq=60 r1="1.0714000463485718" x1=0.4449000060558319 units=km normamps=520.0
New "Linecode.37_P" nphases=3 basefreq=60 r1="1.0714000463485718" x1=0.4449000060558319 units=km normamps=520.0
New "Linecode.37_P" nphases=4 basefreq=60 r1="1.0714000463485718" x1=0.4449000060558319 units=km normamps=520.0

New "Linecode.38_1" nphases=1 basefreq=60 r1="0.2529999911785126" x1=0.09160000085830688 units=km normamps=520.0
New "Linecode.38_2" nphases=2 basefreq=60 r1="0.2529999911785126" x1=0.09160000085830688 units=km normamps=520.0