New "Loadshape.RE1_DU" 24 1 mult=(0.503974, 0.453538, 0.429995, 0.372557, 0.340422, 0.326374, 0.298062, 0.299094, 0.367659, 0.37754, 0.444473, 0.852344, 0.960562, 0.986811, 1.0, 0.775272, 0.794647, 0.805645, 0.64596, 0.706878, 0.822572, 0.728444, 0.733514, 0.681574)
New "Loadshape.RE1_SA" 24 1 mult=(0.729459, 0.627927, 0.558003, 0.553214, 0.487867, 0.464293, 0.441731, 0.481535, 0.48361, 0.469987, 0.561782, 0.675447, 0.866539, 0.983823, 1.0, 0.975202, 0.929332, 0.896818, 0.701575, 0.762612, 0.849989, 0.875798, 0.8096, 0.820988)
New "Loadshape.RE1_DO" 24 1 mult=(0.837391, 0.756464, 0.704, 0.640232, 0.587594, 0.545333, 0.57687, 0.538029, 0.538319, 0.515304, 0.541449, 0.61687, 0.678145, 0.805913, 0.92087, 0.800232, 0.779652, 0.765507, 0.794725, 0.828406, 0.990319, 0.996522, 0.998261, 1.0)
New "Loadshape.RE2_DU" 24 1 mult=(0.357624, 0.354255, 0.324807, 0.310394, 0.303157, 0.321937, 0.335413, 0.520027, 0.783005, 0.940292, 0.976416, 0.895246, 0.921637, 1.0, 0.9426, 0.914712, 0.840654, 0.922136, 0.754929, 0.683679, 0.469865, 0.418081, 0.416272, 0.448403)
New "Loadshape.RE2_SA" 24 1 mult=(0.639206, 0.619036, 0.605265, 0.554719, 0.512515, 0.485541, 0.596436, 0.624787, 0.730903, 0.839368, 1.0, 0.971162, 0.779263, 0.791738, 0.917375, 0.878088, 0.829729, 0.998785, 0.898258, 0.894937, 0.863832, 0.730012, 0.663913, 0.624139)
New "Loadshape.RE2_DO" 24 1 mult=(0.665258, 0.581594, 0.519141, 0.495817, 0.52979, 0.51855, 0.548297, 0.664498, 0.736077, 0.865376, 1.0, 0.834531, 0.692808, 0.652413, 0.634412, 0.579819, 0.627313, 0.575594, 0.6443, 0.666779, 0.754247, 0.68647, 0.681907, 0.618017)
New "Loadshape.RE3_DU" 24 1 mult=(0.895105, 0.852657, 0.804336, 0.736154, 0.761119, 0.817343, 1.0, 0.85979, 0.791189, 0.743636, 0.72007, 0.656224, 0.582657, 0.564476, 0.498252, 0.527622, 0.565594, 0.606923, 0.782727, 0.794825, 0.83021, 0.942587, 0.927762, 0.905944)
New "Loadshape.RE3_SA" 24 1 mult=(0.837073, 0.795166, 0.841269, 0.754378, 0.755273, 0.787501, 0.754546, 0.705757, 0.538242, 0.581771, 0.628266, 0.605438, 0.55844, 0.60846, 0.629665, 0.574162, 0.565546, 0.614446, 0.59285, 0.738432, 0.831422, 0.905836, 1.0, 0.922733)
New "Loadshape.RE3_DO" 24 1 mult=(1.0, 0.879648, 0.951145, 0.92238, 0.878053, 0.743861, 0.837043, 0.924102, 0.831941, 0.849672, 0.767077, 0.759615, 0.716819, 0.709101, 0.739971, 0.727342, 0.750877, 0.619555, 0.72696, 0.650488, 0.806365, 0.927929, 0.919638, 0.893743)
New "Loadshape.RE4_DU" 24 1 mult=(0.679491, 0.672496, 0.710688, 0.614018, 0.601707, 0.521265, 0.482652, 0.678931, 0.648153, 0.679771, 0.714745, 0.691942, 0.727196, 0.794488, 0.802043, 0.80596, 0.826525, 0.897034, 0.955092, 0.895076, 1.0, 0.886682, 0.781337, 0.914522)
New "Loadshape.RE4_SA" 24 1 mult=(0.682393, 0.690164, 0.650977, 0.652309, 0.621892, 0.630884, 0.584369, 0.692718, 0.62056, 0.673068, 0.711257, 0.690164, 0.743783, 0.845804, 0.916075, 0.866896, 0.783304, 0.744116, 0.786856, 1.0, 0.960924, 0.860124, 0.854907, 0.801066)
New "Loadshape.RE4_DO" 24 1 mult=(0.830547, 0.786653, 0.757815, 0.741738, 0.733316, 0.692229, 0.75118, 0.813321, 0.708817, 0.881077, 0.964782, 0.924206, 0.933393, 0.878908, 0.872655, 0.953681, 0.855557, 0.959296, 0.853005, 0.946408, 1.0, 0.923823, 0.848922, 0.800689)
New "Loadshape.RE5_DU" 24 1 mult=(0.471355, 0.427623, 0.418584, 0.402867, 0.359542, 0.334908, 0.32428, 0.305672, 0.296551, 0.257177, 0.257787, 0.324647, 0.396229, 0.367767, 0.442893, 0.396555, 0.435197, 0.476078, 0.667169, 0.887088, 0.985056, 1.0, 0.978582, 0.737489)
New "Loadshape.RE5_SA" 24 1 mult=(0.731413, 0.687046, 0.60386, 0.584021, 0.523558, 0.477118, 0.431083, 0.454394, 0.395599, 0.443032, 0.448397, 0.623743, 0.621895, 0.656206, 0.726228, 0.781235, 0.82267, 0.731368, 0.710402, 0.740656, 0.833536, 1.0, 0.916453, 0.788268)
New "Loadshape.RE5_DO" 24 1 mult=(0.846532, 0.692186, 0.712072, 0.639201, 0.608955, 0.572212, 0.576734, 0.574012, 0.523354, 0.475373, 0.505707, 0.546708, 0.587006, 0.710448, 0.753687, 0.839464, 0.735996, 0.70158, 0.73468, 0.697322, 0.904214, 0.994864, 1.0, 0.915628)
New "Loadshape.RE6_DU" 24 1 mult=(0.775537, 0.689391, 0.653222, 0.584502, 0.511727, 0.454296, 0.418128, 0.342613, 0.314336, 0.280031, 0.295704, 0.427444, 0.797128, 0.786388, 0.65103, 0.461749, 0.461749, 0.594476, 0.622753, 0.515783, 0.632179, 0.710982, 0.929417, 1.0)
New "Loadshape.RE6_SA" 24 1 mult=(1.0, 0.875542, 0.934574, 0.863439, 0.805321, 0.790249, 0.751427, 0.635419, 0.563371, 0.414707, 0.398607, 0.412537, 0.495319, 0.725508, 0.671272, 0.593971, 0.615437, 0.588605, 0.610185, 0.543046, 0.664079, 0.701758, 0.847225, 0.989267)
New "Loadshape.RE6_DO" 24 1 mult=(1.0, 0.960694, 0.934247, 0.824821, 0.75458, 0.699503, 0.679122, 0.685066, 0.699624, 0.753366, 0.554167, 0.610943, 0.687492, 0.820454, 0.921145, 0.889603, 0.579765, 0.590198, 0.749484, 0.724494, 0.78042, 0.909014, 0.983137, 0.986777)
New "Loadshape.RE7_DU" 24 1 mult=(1.0, 0.995213, 0.820378, 0.770344, 0.677342, 0.563027, 0.461363, 0.310007, 0.278436, 0.266241, 0.291771, 0.296444, 0.311033, 0.287326, 0.257921, 0.184864, 0.20139, 0.263848, 0.387281, 0.611238, 0.865284, 0.89902, 0.907112, 0.980966)
New "Loadshape.RE7_SA" 24 1 mult=(1.0, 0.976935, 0.936204, 0.83548, 0.795976, 0.696724, 0.70065, 0.625445, 0.504601, 0.52055, 0.514293, 0.416145, 0.601521, 0.799166, 0.766041, 0.637222, 0.568151, 0.447184, 0.489756, 0.576494, 0.835726, 0.945651, 0.977671, 0.987241)
New "Loadshape.RE7_DO" 24 1 mult=(0.955726, 0.857666, 0.872789, 0.863764, 0.824003, 0.800707, 0.69167, 0.655934, 0.618246, 0.536285, 0.540798, 0.601293, 0.650567, 0.693499, 0.631784, 0.51238, 0.487498, 0.630077, 0.588364, 0.574338, 0.787169, 0.85547, 0.89767, 1.0)
New "Loadshape.RE8_DU" 24 1 mult=(0.320195, 0.312354, 0.334393, 0.302818, 0.276542, 0.275906, 0.254715, 0.228862, 0.233736, 0.251113, 0.270396, 0.260013, 0.385887, 0.395423, 0.320195, 0.285442, 0.278873, 0.367027, 0.630642, 1.0, 0.872219, 0.57936, 0.555414, 0.434414)
New "Loadshape.RE8_SA" 24 1 mult=(0.694266, 0.690892, 0.59215, 0.534499, 0.480527, 0.415823, 0.379945, 0.540018, 0.443729, 0.536032, 0.355106, 0.651947, 0.642748, 0.870285, 0.838393, 0.616375, 0.809568, 0.543085, 0.637228, 0.866912, 0.840233, 1.0, 0.965041, 0.996013)
New "Loadshape.RE8_DO" 24 1 mult=(0.894263, 0.885852, 0.690598, 0.697807, 0.517573, 0.452688, 0.557224, 0.521478, 0.473415, 0.458997, 0.556624, 0.531391, 0.54611, 0.457495, 0.448183, 0.477921, 0.531691, 0.7693, 0.769901, 0.56894, 1.0, 0.854311, 0.811655, 0.780715)
New "Loadshape.RU1_DU" 24 1 mult=(0.014514, 0.011411, 0.009537, 0.009772, 0.008543, 0.095368, 1.0, 0.953275, 0.983481, 0.848371, 0.775354, 0.795404, 0.823352, 0.688059, 0.901965, 0.756385, 0.667469, 0.795108, 0.907832, 0.72944, 0.868394, 0.8199, 0.886936, 0.551859)
New "Loadshape.RU1_SA" 24 1 mult=(0.32576, 0.39086, 0.610416, 0.550932, 0.389329, 0.747, 0.847587, 0.774317, 0.646668, 0.594588, 1.0, 0.945877, 0.932346, 0.83278, 0.684963, 0.757467, 0.820781, 0.83661, 0.730406, 0.395456, 0.268573, 0.406944, 0.540975, 0.541231)
New "Loadshape.RU1_DO" 24 1 mult=(0.549122, 0.538481, 0.357832, 0.304875, 0.238555, 0.485771, 0.770106, 0.584014, 0.559515, 0.519921, 0.498144, 0.788171, 0.939619, 1.0, 0.567434, 0.463252, 0.462262, 0.451373, 0.453106, 0.468201, 0.475625, 0.481811, 0.57758, 0.568424)
New "Loadshape.RU2_DU" 24 1 mult=(0.201324, 0.185745, 0.170094, 0.182697, 0.184848, 0.187795, 0.193435, 0.406223, 0.982996, 0.949487, 0.852606, 0.63969, 0.420265, 1.0, 0.991954, 0.915095, 0.711692, 0.246967, 0.220051, 0.18986, 0.20967, 0.209015, 0.202578, 0.232056)
New "Loadshape.RU2_SA" 24 1 mult=(0.419853, 0.389831, 0.38603, 0.337235, 0.337083, 0.389526, 0.35236, 0.387094, 0.686783, 0.738542, 0.787642, 0.806795, 0.933799, 0.990955, 1.0, 0.816143, 0.766056, 0.78863, 0.788554, 0.828684, 0.457019, 0.555826, 0.454283, 0.465)
New "Loadshape.RU2_DO" 24 1 mult=(0.484712, 0.526523, 0.40719, 0.370195, 0.361448, 0.424605, 0.371319, 0.406388, 0.765268, 0.823931, 0.818393, 0.828344, 0.952652, 1.0, 0.87192, 0.820319, 0.681406, 0.768959, 0.725142, 0.405104, 0.315304, 0.338336, 0.331996, 0.32365)
New "Loadshape.RU3_DU" 24 1 mult=(0.785576, 0.674503, 0.76409, 0.645181, 0.667794, 0.592175, 0.825714, 0.774587, 0.904427, 0.745033, 0.897689, 0.902345, 0.872965, 1.0, 0.956913, 0.836934, 0.847257, 0.859142, 0.933403, 0.936613, 0.850351, 0.723837, 0.578352, 0.583991)
New "Loadshape.RU3_SA" 24 1 mult=(0.534357, 0.536825, 0.434973, 0.430481, 0.446592, 0.402668, 0.462038, 0.56414, 0.695802, 0.858216, 0.823637, 0.823443, 0.87943, 0.999057, 0.874688, 0.926044, 0.955549, 1.0, 0.976319, 0.987827, 0.836559, 0.671344, 0.623898, 0.548583)
New "Loadshape.RU3_DO" 24 1 mult=(0.560668, 0.53477, 0.518773, 0.487609, 0.46171, 0.456387, 0.424966, 0.741844, 0.75704, 0.826809, 0.936384, 0.983574, 0.850876, 1.0, 0.951179, 0.566678, 0.75269, 0.661659, 0.614068, 0.754722, 0.719952, 0.503091, 0.508871, 0.432206)
New "Loadshape.RU4_DU" 24 1 mult=(0.589237, 0.520905, 0.478189, 0.441676, 0.40751, 0.450495, 0.428265, 0.450159, 0.619413, 0.655222, 0.663873, 0.861123, 0.904845, 0.797519, 0.570327, 0.610796, 0.412339, 0.524225, 0.69435, 0.871383, 1.0, 0.927041, 0.837385, 0.749707)
New "Loadshape.RU4_SA" 24 1 mult=(0.590726, 0.532082, 0.496105, 0.466349, 0.439703, 0.501373, 0.543121, 0.671813, 0.665228, 0.617624, 0.665901, 0.682572, 0.579126, 0.66223, 0.667442, 0.644718, 0.610171, 0.629112, 0.725553, 1.0, 0.996358, 0.776548, 0.788372, 0.655113)
New "Loadshape.RU4_DO" 24 1 mult=(0.775792, 0.693429, 0.671769, 0.606985, 0.575054, 0.59497, 0.584436, 0.87119, 0.833893, 0.772204, 0.705642, 0.745013, 0.724011, 0.822174, 0.794819, 0.665877, 0.69389, 1.0, 0.913391, 0.883699, 0.765422, 0.741491, 0.73991, 0.647969)
New "Loadshape.RU5_DU" 24 1 mult=(0.835395, 0.807633, 0.705967, 0.606375, 0.556297, 0.498946, 0.441383, 0.364528, 0.31424, 0.320284, 0.350682, 0.394961, 0.441172, 0.56424, 0.46535, 0.346922, 0.331635, 0.356129, 0.32429, 0.455053, 0.644574, 0.746591, 0.865582, 1.0)
New "Loadshape.RU5_SA" 24 1 mult=(0.863449, 0.782449, 0.785402, 0.743324, 0.802152, 0.674098, 0.681057, 0.553892, 0.446715, 0.436802, 0.466783, 0.498867, 0.599693, 0.607178, 0.579827, 0.521039, 0.473742, 0.479487, 0.630765, 0.758132, 0.841641, 0.961644, 0.99996, 1.0)
New "Loadshape.RU5_DO" 24 1 mult=(1.0, 0.926287, 0.884686, 0.837325, 0.799619, 0.735684, 0.589998, 0.532941, 0.491879, 0.515455, 0.582249, 0.588382, 0.508038, 0.557554, 0.560123, 0.473647, 0.43996, 0.466147, 0.566628, 0.659485, 0.729386, 0.853029, 0.948496, 0.814453)
New "Loadshape.RU6_DU" 24 1 mult=(0.360876, 0.335055, 0.339418, 0.265337, 0.270946, 0.304692, 0.512688, 0.66824, 0.760484, 0.756567, 0.451251, 0.473778, 0.719793, 0.780785, 0.710979, 0.53842, 0.455347, 0.618912, 1.0, 0.914255, 0.637877, 0.639658, 0.657555, 0.593892)
New "Loadshape.RU6_SA" 24 1 mult=(0.50358, 0.369179, 0.341796, 0.308731, 0.296701, 0.299358, 0.577017, 0.640047, 0.716806, 0.602923, 0.639973, 0.606834, 0.537457, 0.693704, 0.663665, 0.57281, 0.46365, 0.504613, 0.915197, 1.0, 0.755923, 0.549635, 0.470367, 0.504096)
New "Loadshape.RU6_DO" 24 1 mult=(0.620432, 0.57238, 0.532102, 0.498587, 0.454068, 0.415506, 0.62871, 0.930951, 0.864426, 0.965072, 0.803654, 0.624975, 0.737937, 0.849889, 0.80103, 0.681001, 0.393701, 0.674036, 1.0, 0.812336, 0.726428, 0.682617, 0.608217, 0.509893)
New "Loadshape.RU7_DU" 24 1 mult=(0.58001, 0.511239, 0.498799, 0.465375, 0.441882, 0.429067, 0.385498, 0.387634, 0.354424, 0.390838, 0.382295, 0.419884, 0.466709, 0.457312, 0.465642, 0.463506, 0.452507, 0.559827, 0.638528, 0.794917, 1.0, 0.880239, 0.797907, 0.772545)
New "Loadshape.RU7_SA" 24 1 mult=(0.737654, 0.691085, 0.635367, 0.591378, 0.543636, 0.482639, 0.457126, 0.507097, 0.519179, 0.452199, 0.597419, 0.599238, 0.559296, 0.685689, 0.720176, 0.689677, 0.62868, 0.584575, 0.761818, 0.817009, 1.0, 0.82739, 0.795894, 0.884457)
New "Loadshape.RU7_DO" 24 1 mult=(0.942063, 0.888808, 0.809071, 0.746672, 0.701463, 0.618361, 0.583248, 0.61485, 0.694001, 0.788442, 0.946233, 0.89861, 0.899781, 0.922092, 0.904974, 0.745501, 0.627359, 0.691075, 0.759034, 0.836064, 1.0, 0.890344, 0.906876, 0.84038)
New "Loadshape.RU8_DU" 24 1 mult=(0.291877, 0.27975, 0.264357, 0.238944, 0.241553, 0.510779, 0.938933, 0.961025, 0.649057, 0.47178, 0.318749, 0.304304, 0.307221, 0.301615, 0.281224, 0.293376, 0.440047, 0.77482, 1.0, 0.782719, 0.54354, 0.393385, 0.352044, 0.331297)
New "Loadshape.RU8_SA" 24 1 mult=(0.31996, 0.338319, 0.314849, 0.295037, 0.275456, 0.470809, 0.893264, 0.958107, 0.739549, 0.498559, 0.401405, 0.33653, 0.367219, 0.432701, 0.404879, 0.355704, 0.543126, 0.803665, 1.0, 0.873699, 0.641302, 0.464676, 0.36662, 0.3265)
New "Loadshape.RU8_DO" 24 1 mult=(0.290354, 0.27781, 0.273245, 0.239806, 0.23594, 0.468141, 0.914513, 1.0, 0.70597, 0.47469, 0.394594, 0.362718, 0.377358, 0.40697, 0.343371, 0.343673, 0.473523, 0.816728, 0.780875, 0.605303, 0.512583, 0.393053, 0.315505, 0.287044)
New "Loadshape.CO1_DU" 24 1 mult=(0.839165, 0.795563, 0.759228, 0.744887, 0.708167, 0.697916, 0.738486, 0.787045, 0.81077, 0.843833, 0.898215, 1.0, 0.953607, 0.904326, 0.832619, 0.854998, 0.91554, 0.90654, 0.91323, 0.856008, 0.902257, 0.866163, 0.872467, 0.842245)
New "Loadshape.CO1_SA" 24 1 mult=(0.794105, 0.726392, 0.73943, 0.691043, 0.675068, 0.663591, 0.667677, 0.742092, 0.825552, 0.894734, 0.977184, 1.0, 0.99293, 0.905431, 0.89221, 0.841941, 0.890144, 0.925768, 0.919846, 0.951384, 0.937382, 0.890098, 0.926915, 0.884681)
New "Loadshape.CO1_DO" 24 1 mult=(0.927763, 0.853719, 0.827611, 0.784193, 0.742629, 0.712003, 0.676241, 0.77316, 0.763839, 0.808969, 0.914352, 0.919346, 0.897185, 0.908218, 0.907457, 0.870126, 0.893903, 0.919393, 0.956915, 0.970088, 1.0, 0.973654, 0.932091, 0.887341)
New "Loadshape.CO2_DU" 24 1 mult=(0.125436, 0.119255, 0.118319, 0.123885, 0.124022, 0.099865, 0.130979, 0.497023, 0.85173, 0.898971, 0.952531, 0.75483, 0.379616, 0.822053, 1.0, 0.987887, 0.891056, 0.404024, 0.192888, 0.205776, 0.208832, 0.182874, 0.158375, 0.13415)
New "Loadshape.CO2_SA" 24 1 mult=(0.485331, 0.473962, 0.480154, 0.493655, 0.491118, 0.418942, 0.374886, 0.571617, 0.939397, 1.0, 0.910263, 0.769973, 0.449904, 0.495381, 0.524414, 0.52015, 0.518628, 0.461781, 0.450208, 0.477616, 0.527256, 0.512537, 0.514973, 0.477413)
New "Loadshape.CO2_DO" 24 1 mult=(0.865984, 0.840686, 0.839222, 0.717332, 0.834204, 0.732595, 0.615931, 0.65461, 0.734894, 0.791553, 0.802634, 0.842149, 0.895045, 0.888564, 0.881037, 0.910516, 0.910516, 0.897136, 0.841104, 0.935814, 1.0, 0.882291, 0.860966, 0.857203)
New "Loadshape.CO3_DU" 24 1 mult=(0.328479, 0.210147, 0.168302, 0.14508, 0.275368, 0.526747, 0.624464, 0.822808, 0.841662, 0.913703, 0.918148, 0.997394, 0.872394, 0.949801, 0.924739, 0.9229, 0.970647, 1.0, 0.939071, 0.93156, 0.837216, 0.763412, 0.688918, 0.466355)
New "Loadshape.CO3_SA" 24 1 mult=(0.638775, 0.389844, 0.196754, 0.237588, 0.298665, 0.501091, 0.769566, 0.762063, 0.782392, 0.928191, 0.895995, 1.0, 0.82375, 0.8501, 0.991798, 0.907512, 0.994503, 0.980019, 0.905767, 0.955589, 0.842684, 0.708664, 0.482506, 0.55763)
New "Loadshape.CO3_DO" 24 1 mult=(0.421913, 0.302087, 0.226957, 0.216348, 0.312522, 0.522087, 0.74313, 0.73687, 0.758, 0.847652, 0.845913, 1.0, 0.973217, 0.919391, 0.886348, 0.771478, 0.784435, 0.746783, 0.758261, 0.872261, 0.817304, 0.731304, 0.512435, 0.525826)
New "Loadshape.CO4_DU" 24 1 mult=(0.191529, 0.184072, 0.182066, 0.189333, 0.188084, 0.235096, 0.239449, 0.486544, 0.763314, 0.868125, 0.935766, 1.0, 0.942201, 0.983307, 0.87668, 0.804837, 0.683864, 0.52943, 0.369393, 0.289602, 0.238503, 0.217911, 0.228623, 0.220258)
New "Loadshape.CO4_SA" 24 1 mult=(0.412342, 0.405174, 0.398005, 0.385149, 0.399486, 0.471794, 0.556179, 0.613449, 0.750195, 0.890213, 0.957924, 1.0, 0.91242, 0.927147, 0.790634, 0.719885, 0.689886, 0.62911, 0.607059, 0.588671, 0.584229, 0.566854, 0.548777, 0.481689)
New "Loadshape.CO4_DO" 24 1 mult=(0.688756, 0.650335, 0.679474, 0.612266, 0.627893, 0.647397, 0.628363, 0.687346, 0.693691, 0.81424, 0.87569, 0.955822, 1.0, 0.969334, 0.815885, 0.745976, 0.760075, 0.772177, 0.733756, 0.726824, 0.685348, 0.668312, 0.697333, 0.703913)
New "Loadshape.CO5_DU" 24 1 mult=(0.3078, 0.302583, 0.337702, 0.331849, 0.350172, 0.363278, 0.466217, 0.581881, 0.766764, 0.784578, 0.836366, 0.890062, 0.786614, 0.861433, 0.885863, 0.905459, 0.932052, 1.0, 0.822624, 0.643084, 0.455274, 0.387708, 0.350554, 0.334266)
New "Loadshape.CO5_SA" 24 1 mult=(0.468648, 0.478268, 0.439959, 0.455764, 0.461605, 0.502147, 0.59251, 0.793678, 0.886274, 0.924412, 1.0, 0.988318, 0.941934, 0.956193, 0.989864, 0.94537, 0.929909, 0.901048, 0.853462, 0.779591, 0.630991, 0.55798, 0.52156, 0.516921)
New "Loadshape.CO5_DO" 24 1 mult=(0.625936, 0.607442, 0.592911, 0.599075, 0.57948, 0.599956, 0.658961, 0.771466, 0.879348, 0.953985, 1.0, 0.856451, 0.772787, 0.791502, 0.798987, 0.774549, 0.7631, 0.755394, 0.713122, 0.667768, 0.664245, 0.642448, 0.610084, 0.568032)
New "Loadshape.CO6_DU" 24 1 mult=(0.556629, 0.49942, 0.480093, 0.441051, 0.453034, 0.41322, 0.501739, 0.542327, 0.551991, 0.636645, 0.704677, 0.98763, 0.979126, 1.0, 0.821415, 0.727484, 0.558562, 0.551218, 0.73908, 0.971395, 0.982992, 0.909934, 0.802474, 0.687669)
New "Loadshape.CO6_SA" 24 1 mult=(0.687023, 0.630445, 0.578806, 0.542434, 0.551414, 0.530759, 0.580153, 0.552313, 0.613381, 0.732824, 0.721599, 0.987876, 1.0, 0.977997, 0.754827, 0.640772, 0.638976, 0.713516, 0.718006, 0.935339, 0.924113, 0.891334, 0.87427, 0.795689)
New "Loadshape.CO6_DO" 24 1 mult=(0.790744, 0.699195, 0.717304, 0.687123, 0.646881, 0.67505, 0.630282, 0.69165, 0.652414, 0.814889, 0.783702, 1.0, 0.935614, 0.872736, 0.708753, 0.761569, 0.678068, 0.750503, 0.657445, 0.734406, 0.717807, 0.752012, 0.68662, 0.64839)
New "Loadshape.CO7_DU" 24 1 mult=(0.444539, 0.414903, 0.402484, 0.3895, 0.388654, 0.419701, 0.351115, 0.328253, 0.384984, 0.428168, 0.412927, 0.398815, 0.423935, 0.424781, 0.431273, 0.447643, 0.445103, 0.541349, 0.713237, 1.0, 0.977138, 0.786622, 0.694045, 0.519616)
New "Loadshape.CO7_SA" 24 1 mult=(0.58724, 0.571378, 0.546352, 0.535072, 0.512161, 0.492422, 0.40853, 0.41699, 0.47374, 0.489954, 0.512161, 0.623898, 0.580895, 0.647162, 0.677476, 0.655975, 0.721537, 0.643285, 0.603807, 1.0, 0.867113, 0.841382, 0.728939, 0.729292)
New "Loadshape.CO7_DO" 24 1 mult=(0.875994, 0.83154, 0.791296, 0.797847, 0.742162, 0.671034, 0.696771, 0.621432, 0.683669, 0.697707, 0.677117, 0.749181, 0.60599, 0.540945, 0.707534, 0.70847, 0.709406, 0.819373, 0.79036, 0.964436, 1.0, 0.933552, 0.907347, 0.893776)
New "Loadshape.IP1_DU" 24 1 mult=(1.0, 1.0, 1.0, 1.0, 1.0, 0.791677, 0.083292, 0.0, 0.0, 0.0, 0.0, 0.0, 0.0, 0.0, 0.0, 0.0, 0.0, 0.124969, 0.916646, 1.0, 1.0, 1.0, 1.0, 1.0)
New "Loadshape.IP1_SA" 24 1 mult=(1.0, 1.0, 1.0, 1.0, 1.0, 0.791677, 0.083292, 0.0, 0.0, 0.0, 0.0, 0.0, 0.0, 0.0, 0.0, 0.0, 0.0, 0.124969, 0.916646, 1.0, 1.0, 1.0, 1.0, 1.0)
New "Loadshape.IP1_DO" 24 1 mult=(1.0, 1.0, 1.0, 1.0, 1.0, 0.791677, 0.083292, 0.0, 0.0, 0.0, 0.0, 0.0, 0.0, 0.0, 0.0, 0.0, 0.0, 0.124969, 0.916646, 1.0, 1.0, 1.0, 1.0, 1.0)
New "Loadshape.PP1_DU" 24 1 mult=(0.839165, 0.795563, 0.759228, 0.744887, 0.708167, 0.697916, 0.738486, 0.787045, 0.81077, 0.843833, 0.898215, 1.0, 0.953607, 0.904326, 0.832619, 0.854998, 0.91554, 0.90654, 0.91323, 0.856008, 0.902257, 0.866163, 0.872467, 0.842245)
New "Loadshape.PP1_SA" 24 1 mult=(0.794105, 0.726392, 0.73943, 0.691043, 0.675068, 0.663591, 0.667677, 0.742092, 0.825552, 0.894734, 0.977184, 1.0, 0.99293, 0.905431, 0.89221, 0.841941, 0.890144, 0.925768, 0.919846, 0.951384, 0.937382, 0.890098, 0.926915, 0.884681)
New "Loadshape.PP1_DO" 24 1 mult=(0.927763, 0.853719, 0.827611, 0.784193, 0.742629, 0.712003, 0.676241, 0.77316, 0.763839, 0.808969, 0.914352, 0.919346, 0.897185, 0.908218, 0.907457, 0.870126, 0.893903, 0.919393, 0.956915, 0.970088, 1.0, 0.973654, 0.932091, 0.887341)
New "Loadshape.PP2_DU" 24 1 mult=(0.125436, 0.119255, 0.118319, 0.123885, 0.124022, 0.099865, 0.130979, 0.497023, 0.85173, 0.898971, 0.952531, 0.75483, 0.379616, 0.822053, 1.0, 0.987887, 0.891056, 0.404024, 0.192888, 0.205776, 0.208832, 0.182874, 0.158375, 0.13415)
New "Loadshape.PP2_SA" 24 1 mult=(0.485331, 0.473962, 0.480154, 0.493655, 0.491118, 0.418942, 0.374886, 0.571617, 0.939397, 1.0, 0.910263, 0.769973, 0.449904, 0.495381, 0.524414, 0.52015, 0.518628, 0.461781, 0.450208, 0.477616, 0.527256, 0.512537, 0.514973, 0.477413)
New "Loadshape.PP2_DO" 24 1 mult=(0.865984, 0.840686, 0.839222, 0.717332, 0.834204, 0.732595, 0.615931, 0.65461, 0.734894, 0.791553, 0.802634, 0.842149, 0.895045, 0.888564, 0.881037, 0.910516, 0.910516, 0.897136, 0.841104, 0.935814, 1.0, 0.882291, 0.860966, 0.857203)
New "Loadshape.PP3_DU" 24 1 mult=(0.328479, 0.210147, 0.168302, 0.14508, 0.275368, 0.526747, 0.624464, 0.822808, 0.841662, 0.913703, 0.918148, 0.997394, 0.872394, 0.949801, 0.924739, 0.9229, 0.970647, 1.0, 0.939071, 0.93156, 0.837216, 0.763412, 0.688918, 0.466355)
New "Loadshape.PP3_SA" 24 1 mult=(0.638775, 0.389844, 0.196754, 0.237588, 0.298665, 0.501091, 0.769566, 0.762063, 0.782392, 0.928191, 0.895995, 1.0, 0.82375, 0.8501, 0.991798, 0.907512, 0.994503, 0.980019, 0.905767, 0.955589, 0.842684, 0.708664, 0.482506, 0.55763)
New "Loadshape.PP3_DO" 24 1 mult=(0.421913, 0.302087, 0.226957, 0.216348, 0.312522, 0.522087, 0.74313, 0.73687, 0.758, 0.847652, 0.845913, 1.0, 0.973217, 0.919391, 0.886348, 0.771478, 0.784435, 0.746783, 0.758261, 0.872261, 0.817304, 0.731304, 0.512435, 0.525826)
New "Loadshape.PP4_DU" 24 1 mult=(0.191529, 0.184072, 0.182066, 0.189333, 0.188084, 0.235096, 0.239449, 0.486544, 0.763314, 0.868125, 0.935766, 1.0, 0.942201, 0.983307, 0.87668, 0.804837, 0.683864, 0.52943, 0.369393, 0.289602, 0.238503, 0.217911, 0.228623, 0.220258)
New "Loadshape.PP4_SA" 24 1 mult=(0.412342, 0.405174, 0.398005, 0.385149, 0.399486, 0.471794, 0.556179, 0.613449, 0.750195, 0.890213, 0.957924, 1.0, 0.91242, 0.927147, 0.790634, 0.719885, 0.689886, 0.62911, 0.607059, 0.588671, 0.584229, 0.566854, 0.548777, 0.481689)
New "Loadshape.PP4_DO" 24 1 mult=(0.688756, 0.650335, 0.679474, 0.612266, 0.627893, 0.647397, 0.628363, 0.687346, 0.693691, 0.81424, 0.87569, 0.955822, 1.0, 0.969334, 0.815885, 0.745976, 0.760075, 0.772177, 0.733756, 0.726824, 0.685348, 0.668312, 0.697333, 0.703913)
New "Loadshape.PP5_DU" 24 1 mult=(0.3078, 0.302583, 0.337702, 0.331849, 0.350172, 0.363278, 0.466217, 0.581881, 0.766764, 0.784578, 0.836366, 0.890062, 0.786614, 0.861433, 0.885863, 0.905459, 0.932052, 1.0, 0.822624, 0.643084, 0.455274, 0.387708, 0.350554, 0.334266)
New "Loadshape.PP5_SA" 24 1 mult=(0.468648, 0.478268, 0.439959, 0.455764, 0.461605, 0.502147, 0.59251, 0.793678, 0.886274, 0.924412, 1.0, 0.988318, 0.941934, 0.956193, 0.989864, 0.94537, 0.929909, 0.901048, 0.853462, 0.779591, 0.630991, 0.55798, 0.52156, 0.516921)
New "Loadshape.PP5_DO" 24 1 mult=(0.625936, 0.607442, 0.592911, 0.599075, 0.57948, 0.599956, 0.658961, 0.771466, 0.879348, 0.953985, 1.0, 0.856451, 0.772787, 0.791502, 0.798987, 0.774549, 0.7631, 0.755394, 0.713122, 0.667768, 0.664245, 0.642448, 0.610084, 0.568032)
New "Loadshape.PP6_DU" 24 1 mult=(0.556629, 0.49942, 0.480093, 0.441051, 0.453034, 0.41322, 0.501739, 0.542327, 0.551991, 0.636645, 0.704677, 0.98763, 0.979126, 1.0, 0.821415, 0.727484, 0.558562, 0.551218, 0.73908, 0.971395, 0.982992, 0.909934, 0.802474, 0.687669)
New "Loadshape.PP6_SA" 24 1 mult=(0.687023, 0.630445, 0.578806, 0.542434, 0.551414, 0.530759, 0.580153, 0.552313, 0.613381, 0.732824, 0.721599, 0.987876, 1.0, 0.977997, 0.754827, 0.640772, 0.638976, 0.713516, 0.718006, 0.935339, 0.924113, 0.891334, 0.87427, 0.795689)
New "Loadshape.PP6_DO" 24 1 mult=(0.790744, 0.699195, 0.717304, 0.687123, 0.646881, 0.67505, 0.630282, 0.69165, 0.652414, 0.814889, 0.783702, 1.0, 0.935614, 0.872736, 0.708753, 0.761569, 0.678068, 0.750503, 0.657445, 0.734406, 0.717807, 0.752012, 0.68662, 0.64839)
New "Loadshape.PP7_DU" 24 1 mult=(0.444539, 0.414903, 0.402484, 0.3895, 0.388654, 0.419701, 0.351115, 0.328253, 0.384984, 0.428168, 0.412927, 0.398815, 0.423935, 0.424781, 0.431273, 0.447643, 0.445103, 0.541349, 0.713237, 1.0, 0.977138, 0.786622, 0.694045, 0.519616)
New "Loadshape.PP7_SA" 24 1 mult=(0.58724, 0.571378, 0.546352, 0.535072, 0.512161, 0.492422, 0.40853, 0.41699, 0.47374, 0.489954, 0.512161, 0.623898, 0.580895, 0.647162, 0.677476, 0.655975, 0.721537, 0.643285, 0.603807, 1.0, 0.867113, 0.841382, 0.728939, 0.729292)
New "Loadshape.PP7_DO" 24 1 mult=(0.875994, 0.83154, 0.791296, 0.797847, 0.742162, 0.671034, 0.696771, 0.621432, 0.683669, 0.697707, 0.677117, 0.749181, 0.60599, 0.540945, 0.707534, 0.70847, 0.709406, 0.819373, 0.79036, 0.964436, 1.0, 0.933552, 0.907347, 0.893776)
New "Loadshape.IN1_DU" 24 1 mult=(0.839165, 0.795563, 0.759228, 0.744887, 0.708167, 0.697916, 0.738486, 0.787045, 0.81077, 0.843833, 0.898215, 1.0, 0.953607, 0.904326, 0.832619, 0.854998, 0.91554, 0.90654, 0.91323, 0.856008, 0.902257, 0.866163, 0.872467, 0.842245)
New "Loadshape.IN1_SA" 24 1 mult=(0.794105, 0.726392, 0.73943, 0.691043, 0.675068, 0.663591, 0.667677, 0.742092, 0.825552, 0.894734, 0.977184, 1.0, 0.99293, 0.905431, 0.89221, 0.841941, 0.890144, 0.925768, 0.919846, 0.951384, 0.937382, 0.890098, 0.926915, 0.884681)
New "Loadshape.IN1_DO" 24 1 mult=(0.927763, 0.853719, 0.827611, 0.784193, 0.742629, 0.712003, 0.676241, 0.77316, 0.763839, 0.808969, 0.914352, 0.919346, 0.897185, 0.908218, 0.907457, 0.870126, 0.893903, 0.919393, 0.956915, 0.970088, 1.0, 0.973654, 0.932091, 0.887341)
New "Loadshape.IN2_DU" 24 1 mult=(0.125436, 0.119255, 0.118319, 0.123885, 0.124022, 0.099865, 0.130979, 0.497023, 0.85173, 0.898971, 0.952531, 0.75483, 0.379616, 0.822053, 1.0, 0.987887, 0.891056, 0.404024, 0.192888, 0.205776, 0.208832, 0.182874, 0.158375, 0.13415)
New "Loadshape.IN2_SA" 24 1 mult=(0.485331, 0.473962, 0.480154, 0.493655, 0.491118, 0.418942, 0.374886, 0.571617, 0.939397, 1.0, 0.910263, 0.769973, 0.449904, 0.495381, 0.524414, 0.52015, 0.518628, 0.461781, 0.450208, 0.477616, 0.527256, 0.512537, 0.514973, 0.477413)
New "Loadshape.IN2_DO" 24 1 mult=(0.865984, 0.840686, 0.839222, 0.717332, 0.834204, 0.732595, 0.615931, 0.65461, 0.734894, 0.791553, 0.802634, 0.842149, 0.895045, 0.888564, 0.881037, 0.910516, 0.910516, 0.897136, 0.841104, 0.935814, 1.0, 0.882291, 0.860966, 0.857203)
New "Loadshape.IN3_DU" 24 1 mult=(0.328479, 0.210147, 0.168302, 0.14508, 0.275368, 0.526747, 0.624464, 0.822808, 0.841662, 0.913703, 0.918148, 0.997394, 0.872394, 0.949801, 0.924739, 0.9229, 0.970647, 1.0, 0.939071, 0.93156, 0.837216, 0.763412, 0.688918, 0.466355)
New "Loadshape.IN3_SA" 24 1 mult=(0.638775, 0.389844, 0.196754, 0.237588, 0.298665, 0.501091, 0.769566, 0.762063, 0.782392, 0.928191, 0.895995, 1.0, 0.82375, 0.8501, 0.991798, 0.907512, 0.994503, 0.980019, 0.905767, 0.955589, 0.842684, 0.708664, 0.482506, 0.55763)
New "Loadshape.IN3_DO" 24 1 mult=(0.421913, 0.302087, 0.226957, 0.216348, 0.312522, 0.522087, 0.74313, 0.73687, 0.758, 0.847652, 0.845913, 1.0, 0.973217, 0.919391, 0.886348, 0.771478, 0.784435, 0.746783, 0.758261, 0.872261, 0.817304, 0.731304, 0.512435, 0.525826)
New "Loadshape.IN4_DU" 24 1 mult=(0.191529, 0.184072, 0.182066, 0.189333, 0.188084, 0.235096, 0.239449, 0.486544, 0.763314, 0.868125, 0.935766, 1.0, 0.942201, 0.983307, 0.87668, 0.804837, 0.683864, 0.52943, 0.369393, 0.289602, 0.238503, 0.217911, 0.228623, 0.220258)
New "Loadshape.IN4_SA" 24 1 mult=(0.412342, 0.405174, 0.398005, 0.385149, 0.399486, 0.471794, 0.556179, 0.613449, 0.750195, 0.890213, 0.957924, 1.0, 0.91242, 0.927147, 0.790634, 0.719885, 0.689886, 0.62911, 0.607059, 0.588671, 0.584229, 0.566854, 0.548777, 0.481689)
New "Loadshape.IN4_DO" 24 1 mult=(0.688756, 0.650335, 0.679474, 0.612266, 0.627893, 0.647397, 0.628363, 0.687346, 0.693691, 0.81424, 0.87569, 0.955822, 1.0, 0.969334, 0.815885, 0.745976, 0.760075, 0.772177, 0.733756, 0.726824, 0.685348, 0.668312, 0.697333, 0.703913)
New "Loadshape.IN5_DU" 24 1 mult=(0.3078, 0.302583, 0.337702, 0.331849, 0.350172, 0.363278, 0.466217, 0.581881, 0.766764, 0.784578, 0.836366, 0.890062, 0.786614, 0.861433, 0.885863, 0.905459, 0.932052, 1.0, 0.822624, 0.643084, 0.455274, 0.387708, 0.350554, 0.334266)
New "Loadshape.IN5_SA" 24 1 mult=(0.468648, 0.478268, 0.439959, 0.455764, 0.461605, 0.502147, 0.59251, 0.793678, 0.886274, 0.924412, 1.0, 0.988318, 0.941934, 0.956193, 0.989864, 0.94537, 0.929909, 0.901048, 0.853462, 0.779591, 0.630991, 0.55798, 0.52156, 0.516921)
New "Loadshape.IN5_DO" 24 1 mult=(0.625936, 0.607442, 0.592911, 0.599075, 0.57948, 0.599956, 0.658961, 0.771466, 0.879348, 0.953985, 1.0, 0.856451, 0.772787, 0.791502, 0.798987, 0.774549, 0.7631, 0.755394, 0.713122, 0.667768, 0.664245, 0.642448, 0.610084, 0.568032)
New "Loadshape.IN6_DU" 24 1 mult=(0.556629, 0.49942, 0.480093, 0.441051, 0.453034, 0.41322, 0.501739, 0.542327, 0.551991, 0.636645, 0.704677, 0.98763, 0.979126, 1.0, 0.821415, 0.727484, 0.558562, 0.551218, 0.73908, 0.971395, 0.982992, 0.909934, 0.802474, 0.687669)
New "Loadshape.IN6_SA" 24 1 mult=(0.687023, 0.630445, 0.578806, 0.542434, 0.551414, 0.530759, 0.580153, 0.552313, 0.613381, 0.732824, 0.721599, 0.987876, 1.0, 0.977997, 0.754827, 0.640772, 0.638976, 0.713516, 0.718006, 0.935339, 0.924113, 0.891334, 0.87427, 0.795689)
New "Loadshape.IN6_DO" 24 1 mult=(0.790744, 0.699195, 0.717304, 0.687123, 0.646881, 0.67505, 0.630282, 0.69165, 0.652414, 0.814889, 0.783702, 1.0, 0.935614, 0.872736, 0.708753, 0.761569, 0.678068, 0.750503, 0.657445, 0.734406, 0.717807, 0.752012, 0.68662, 0.64839)
New "Loadshape.IN7_DU" 24 1 mult=(0.444539, 0.414903, 0.402484, 0.3895, 0.388654, 0.419701, 0.351115, 0.328253, 0.384984, 0.428168, 0.412927, 0.398815, 0.423935, 0.424781, 0.431273, 0.447643, 0.445103, 0.541349, 0.713237, 1.0, 0.977138, 0.786622, 0.694045, 0.519616)
New "Loadshape.IN7_SA" 24 1 mult=(0.58724, 0.571378, 0.546352, 0.535072, 0.512161, 0.492422, 0.40853, 0.41699, 0.47374, 0.489954, 0.512161, 0.623898, 0.580895, 0.647162, 0.677476, 0.655975, 0.721537, 0.643285, 0.603807, 1.0, 0.867113, 0.841382, 0.728939, 0.729292)