New "Transformer.TRF_2_4255" phases=3 windings=2 buses=["386211.1.2.3" "ET2_4255.1.2.3.4"] conns=[Delta Wye ] kvs=[23 0.38] taps=[1.0 1.0] kvas=[75.0 75.0] %loadloss=3.840 %noloadloss=0.967
New "Reactor.TRF_2_4255 phases=1 bus1="ET2_4255.4" R=15 X=0 basefreq=60

New "Transformer.TRF_2_6240" phases=3 windings=2 buses=["797821.1.2.3" "ET2_6240.1.2.3.4"] conns=[Delta Wye ] kvs=[13.8 0.44] taps=[1.0 1.0] kvas=[225.0 225.0] %loadloss=1.280 %noloadloss=0.322
New "Reactor.TRF_2_6240 phases=1 bus1="ET2_6240.4" R=15 X=0 basefreq=60

New "Transformer.TRF_2_1280" phases=1 windings=3 buses=["33961.3" "ET2_1280.1.2.4"] conns=[Delta Wye ] kvs=[13.8 0.44] taps=[1.0 1.0 1.0] kvas=[15.0 15.0 15.0] %loadloss=1.767 %noloadloss=0.433
New "Reactor.TRF_2_1280 phases=1 bus1="ET2_1280.4" R=15 X=0 basefreq=60

New "Transformer.TRF_2_3969" phases=1 windings=3 buses=["65171.3" "ET2_3969.1.2.4"] conns=[Delta Wye ] kvs=[13.8 0.44] taps=[1.0 1.0 1.0] kvas=[15.0 15.0 15.0] %loadloss=1.767 %noloadloss=0.433
New "Reactor.TRF_2_3969 phases=1 bus1="ET2_3969.4" R=15 X=0 basefreq=60

New "Transformer.TRF_2_5971" phases=1 windings=3 buses=["786941.1" "ET2_5971.1.2.4"] conns=[Delta Wye ] kvs=[13.8 0.44] taps=[1.0 1.0 1.0] kvas=[10.0 10.0 10.0] %loadloss=1.950 %noloadloss=0.500
New "Reactor.TRF_2_5971 phases=1 bus1="ET2_5971.4" R=15 X=0 basefreq=60

New "Transformer.TRF_28_5516" phases=3 windings=2 buses=["751671.1.2.3" "ET28_5516.1.2.3.4"] conns=[Delta Wye ] kvs=[13.8 0.44] taps=[1.0 1.0] kvas=[75.0 75.0] %loadloss=3.840 %noloadloss=0.967
New "Reactor.TRF_28_5516 phases=1 bus1="ET28_5516.4" R=15 X=0 basefreq=60

New "Transformer.TRF_2_449" phases=3 windings=2 buses=["340051.1.2.3" "ET2_449.1.2.3.4"] conns=[Delta Wye ] kvs=[23 0.38] taps=[1.0 1.0] kvas=[45.0 45.0] %loadloss=1.867 %noloadloss=0.478
New "Reactor.TRF_2_449 phases=1 bus1="ET2_449.4" R=15 X=0 basefreq=60

New "Transformer.TRF_28_2157" phases=1 windings=3 buses=["327841.3" "ET28_2157.1.2.4"] conns=[Delta Wye ] kvs=[23 0.38] taps=[1.0 1.0 1.0] kvas=[15.0 15.0 15.0] %loadloss=1.767 %noloadloss=0.433
New "Reactor.TRF_28_2157 phases=1 bus1="ET28_2157.4" R=15 X=0 basefreq=60

New "Transformer.TRF_2_5729" phases=3 windings=2 buses=["772241.1.2.3" "ET2_5729.1.2.3.4"] conns=[Delta Wye ] kvs=[23 0.38] taps=[1.0 1.0] kvas=[30.0 30.0] %loadloss=2.100 %noloadloss=0.533
New "Reactor.TRF_2_5729 phases=1 bus1="ET2_5729.4" R=15 X=0 basefreq=60

New "Transformer.TRF_2_5686" phases=1 windings=3 buses=["760611.2" "ET2_5686.1.2.4"] conns=[Delta Wye ] kvs=[13.8 0.44] taps=[1.0 1.0 1.0] kvas=[25.0 25.0 25.0] %loadloss=1.560 %noloadloss=0.360
New "Reactor.TRF_2_5686 phases=1 bus1="ET2_5686.4" R=15 X=0 basefreq=60

New "Transformer.TRF_28_5515" phases=3 windings=2 buses=["751501.1.2.3" "ET28_5515.1.2.3.4"] conns=[Delta Wye ] kvs=[13.8 0.22] taps=[1.0 1.0] kvas=[30.0 30.0] %loadloss=2.100 %noloadloss=0.533
New "Reactor.TRF_28_5515 phases=1 bus1="ET28_5515.4" R=15 X=0 basefreq=60

New "Transformer.TRF_28_5514" phases=3 windings=2 buses=["751571.1.2.3" "ET28_5514.1.2.3.4"] conns=[Delta Wye ] kvs=[13.8 0.44] taps=[1.0 1.0] kvas=[30.0 30.0] %loadloss=2.100 %noloadloss=0.533
New "Reactor.TRF_28_5514 phases=1 bus1="ET28_5514.4" R=15 X=0 basefreq=60

New "Transformer.TRF_28_1210" phases=1 windings=3 buses=["40861.2" "ET28_1210.1.2.4"] conns=[Delta Wye ] kvs=[23 0.38] taps=[1.0 1.0 1.0] kvas=[10.0 10.0 10.0] %loadloss=1.950 %noloadloss=0.500
New "Reactor.TRF_28_1210 phases=1 bus1="ET28_1210.4" R=15 X=0 basefreq=60

New "Transformer.TRF_2_1218" phases=1 windings=3 buses=["65221.3" "ET2_1218.1.2.4"] conns=[Delta Wye ] kvs=[23 0.38] taps=[1.0 1.0 1.0] kvas=[10.0 10.0 10.0] %loadloss=1.950 %noloadloss=0.500
New "Reactor.TRF_2_1218 phases=1 bus1="ET2_1218.4" R=15 X=0 basefreq=60

New "Transformer.TRF_2_4049" phases=3 windings=2 buses=["911.1.2.3" "ET2_4049.1.2.3.4"] conns=[Delta Wye ] kvs=[23 0.38] taps=[1.0 1.0] kvas=[15.0 15.0] %loadloss=2.500 %noloadloss=0.633
New "Reactor.TRF_2_4049 phases=1 bus1="ET2_4049.4" R=15 X=0 basefreq=60

New "Transformer.TRF_2_708" phases=2 windings=3 buses=["66011.3.1" "ET2_708.1.2.4"] conns=[Delta Wye ] kvs=[13.8 0.44] taps=[1.0 1.0 1.0] kvas=[10.0 10.0 10.0] %loadloss=1.150 %noloadloss=0.400
New "Reactor.TRF_2_708 phases=1 bus1="ET2_708.4" R=15 X=0 basefreq=60

New "Transformer.TRF_28_710" phases=2 windings=3 buses=["58041.3.1" "ET28_710.1.2.4"] conns=[Delta Wye ] kvs=[23 0.38] taps=[1.0 1.0 1.0] kvas=[15.0 15.0 15.0] %loadloss=1.933 %noloadloss=0.500
New "Reactor.TRF_28_710 phases=1 bus1="ET28_710.4" R=15 X=0 basefreq=60

New "Transformer.TRF_2_5277" phases=3 windings=2 buses=["624771.1.2.3" "ET2_5277.1.2.3.4"] conns=[Delta Wye ] kvs=[23 0.38] taps=[1.0 1.0] kvas=[45.0 45.0] %loadloss=1.867 %noloadloss=0.478
New "Reactor.TRF_2_5277 phases=1 bus1="ET2_5277.4" R=15 X=0 basefreq=60

New "Transformer.TRF_2_4550" phases=3 windings=2 buses=["65891.1.2.3" "ET2_4550.1.2.3.4"] conns=[Delta Wye ] kvs=[13.8 0.44] taps=[1.0 1.0] kvas=[15.0 15.0] %loadloss=2.500 %noloadloss=0.633
New "Reactor.TRF_2_4550 phases=1 bus1="ET2_4550.4" R=15 X=0 basefreq=60

New "Transformer.TRF_28_4233" phases=3 windings=2 buses=["40001.1.2.3" "ET28_4233.1.2.3.4"] conns=[Delta Wye ] kvs=[13.8 0.44] taps=[1.0 1.0] kvas=[15.0 15.0] %loadloss=2.500 %noloadloss=0.633
New "Reactor.TRF_28_4233 phases=1 bus1="ET28_4233.4" R=15 X=0 basefreq=60

New "Transformer.TRF_28_4602" phases=1 windings=3 buses=["709521.2" "ET28_4602.1.2.4"] conns=[Delta Wye ] kvs=[23 0.38] taps=[1.0 1.0 1.0] kvas=[25.0 25.0 25.0] %loadloss=1.560 %noloadloss=0.360
New "Reactor.TRF_28_4602 phases=1 bus1="ET28_4602.4" R=15 X=0 basefreq=60

New "Transformer.TRF_2_5133" phases=1 windings=3 buses=["732381.1" "ET2_5133.1.2.4"] conns=[Delta Wye ] kvs=[13.8 0.44] taps=[1.0 1.0 1.0] kvas=[15.0 15.0 15.0] %loadloss=1.767 %noloadloss=0.433
New "Reactor.TRF_2_5133 phases=1 bus1="ET2_5133.4" R=15 X=0 basefreq=60

New "Transformer.TRF_2_703" phases=3 windings=2 buses=["19771.1.2.3" "ET2_703.1.2.3.4"] conns=[Delta Wye ] kvs=[13.8 0.44] taps=[1.0 1.0] kvas=[15.0 15.0] %loadloss=2.500 %noloadloss=0.633
New "Reactor.TRF_2_703 phases=1 bus1="ET2_703.4" R=15 X=0 basefreq=60

New "Transformer.TRF_2_1114" phases=2 windings=3 buses=["56121.3.1" "ET2_1114.1.2.4"] conns=[Delta Wye ] kvs=[23 0.38] taps=[1.0 1.0 1.0] kvas=[10.0 10.0 10.0] %loadloss=1.150 %noloadloss=0.400
New "Reactor.TRF_2_1114 phases=1 bus1="ET2_1114.4" R=15 X=0 basefreq=60

New "Transformer.TRF_28_713" phases=3 windings=2 buses=["649771.1.2.3" "ET28_713.1.2.3.4"] conns=[Delta Wye ] kvs=[13.8 0.44] taps=[1.0 1.0] kvas=[45.0 45.0] %loadloss=1.867 %noloadloss=0.478
New "Reactor.TRF_28_713 phases=1 bus1="ET28_713.4" R=15 X=0 basefreq=60

New "Transformer.TRF_2_3084" phases=1 windings=3 buses=["34621.3" "ET2_3084.1.2.4"] conns=[Delta Wye ] kvs=[23 0.38] taps=[1.0 1.0 1.0] kvas=[10.0 10.0 10.0] %loadloss=1.950 %noloadloss=0.500
New "Reactor.TRF_2_3084 phases=1 bus1="ET2_3084.4" R=15 X=0 basefreq=60

New "Transformer.TRF_2_448" phases=3 windings=2 buses=["55111.1.2.3" "ET2_448.1.2.3.4"] conns=[Delta Wye ] kvs=[23 0.38] taps=[1.0 1.0] kvas=[45.0 45.0] %loadloss=1.867 %noloadloss=0.478
New "Reactor.TRF_2_448 phases=1 bus1="ET2_448.4" R=15 X=0 basefreq=60

New "Transformer.TRF_2_1149" phases=1 windings=3 buses=["68881.1" "ET2_1149.1.2.4"] conns=[Delta Wye ] kvs=[23 0.38] taps=[1.0 1.0 1.0] kvas=[15.0 15.0 15.0] %loadloss=1.767 %noloadloss=0.433
New "Reactor.TRF_2_1149 phases=1 bus1="ET2_1149.4" R=15 X=0 basefreq=60

New "Transformer.TRF_2_3692" phases=1 windings=2 buses=["478631.2" "ET2_3692.1.4"] conns=[Delta Wye ] kvs=[23 0.38] taps=[1.0 1.0] kvas=[5.0 5.0] %loadloss=2.100 %noloadloss=0.700
New "Reactor.TRF_2_3692 phases=1 bus1="ET2_3692.4" R=15 X=0 basefreq=60

New "Transformer.TRF_2_2942" phases=1 windings=3 buses=["607861.3" "ET2_2942.1.2.4"] conns=[Delta Wye ] kvs=[13.8 0.44] taps=[1.0 1.0 1.0] kvas=[15.0 15.0 15.0] %loadloss=1.767 %noloadloss=0.433
New "Reactor.TRF_2_2942 phases=1 bus1="ET2_2942.4" R=15 X=0 basefreq=60

New "Transformer.TRF_2_1281" phases=1 windings=3 buses=["34721.3" "ET2_1281.1.2.4"] conns=[Delta Wye ] kvs=[23 0.38] taps=[1.0 1.0 1.0] kvas=[15.0 15.0 15.0] %loadloss=1.767 %noloadloss=0.433
New "Reactor.TRF_2_1281 phases=1 bus1="ET2_1281.4" R=15 X=0 basefreq=60

New "Transformer.TRF_2_3265" phases=3 windings=2 buses=["493111.1.2.3" "ET2_3265.1.2.3.4"] conns=[Delta Wye ] kvs=[13.8 0.44] taps=[1.0 1.0] kvas=[15.0 15.0] %loadloss=2.500 %noloadloss=0.633
New "Reactor.TRF_2_3265 phases=1 bus1="ET2_3265.4" R=15 X=0 basefreq=60

New "Transformer.TRF_2_3255" phases=1 windings=3 buses=["620991.1" "ET2_3255.1.2.4"] conns=[Delta Wye ] kvs=[13.8 0.44] taps=[1.0 1.0 1.0] kvas=[10.0 10.0 10.0] %loadloss=1.950 %noloadloss=0.500
New "Reactor.TRF_2_3255 phases=1 bus1="ET2_3255.4" R=15 X=0 basefreq=60

New "Transformer.TRF_2_3401" phases=1 windings=3 buses=["40091.1" "ET2_3401.1.2.4"] conns=[Delta Wye ] kvs=[13.8 0.44] taps=[1.0 1.0 1.0] kvas=[10.0 10.0 10.0] %loadloss=1.950 %noloadloss=0.500
New "Reactor.TRF_2_3401 phases=1 bus1="ET2_3401.4" R=15 X=0 basefreq=60

New "Transformer.TRF_2_3461" phases=3 windings=2 buses=["624781.1.2.3" "ET2_3461.1.2.3.4"] conns=[Delta Wye ] kvs=[23 0.38] taps=[1.0 1.0] kvas=[75.0 75.0] %loadloss=3.840 %noloadloss=0.967
New "Reactor.TRF_2_3461 phases=1 bus1="ET2_3461.4" R=15 X=0 basefreq=60

New "Transformer.TRF_2_3083" phases=1 windings=3 buses=["627431.2" "ET2_3083.1.2.4"] conns=[Delta Wye ] kvs=[13.8 0.44] taps=[1.0 1.0 1.0] kvas=[10.0 10.0 10.0] %loadloss=1.950 %noloadloss=0.500
New "Reactor.TRF_2_3083 phases=1 bus1="ET2_3083.4" R=15 X=0 basefreq=60

New "Transformer.TRF_2_3183" phases=1 windings=3 buses=["478661.2" "ET2_3183.1.2.4"] conns=[Delta Wye ] kvs=[13.8 0.44] taps=[1.0 1.0 1.0] kvas=[10.0 10.0 10.0] %loadloss=1.950 %noloadloss=0.500
New "Reactor.TRF_2_3183 phases=1 bus1="ET2_3183.4" R=15 X=0 basefreq=60

New "Transformer.TRF_2_3184" phases=1 windings=3 buses=["478731.2" "ET2_3184.1.2.4"] conns=[Delta Wye ] kvs=[23 0.38] taps=[1.0 1.0 1.0] kvas=[10.0 10.0 10.0] %loadloss=1.950 %noloadloss=0.500
New "Reactor.TRF_2_3184 phases=1 bus1="ET2_3184.4" R=15 X=0 basefreq=60

New "Transformer.TRF_2_2946" phases=1 windings=3 buses=["627821.2" "ET2_2946.1.2.4"] conns=[Delta Wye ] kvs=[23 0.38] taps=[1.0 1.0 1.0] kvas=[5.0 5.0 5.0] %loadloss=2.100 %noloadloss=0.700
New "Reactor.TRF_2_2946 phases=1 bus1="ET2_2946.4" R=15 X=0 basefreq=60

New "Transformer.TRF_2_2558" phases=1 windings=3 buses=["39901.3" "ET2_2558.1.2.4"] conns=[Delta Wye ] kvs=[23 0.38] taps=[1.0 1.0 1.0] kvas=[7.5 7.5 7.5] %loadloss=2.600 %noloadloss=0.667
New "Reactor.TRF_2_2558 phases=1 bus1="ET2_2558.4" R=15 X=0 basefreq=60

New "Transformer.TRF_2_706" phases=2 windings=3 buses=["5041.1.2" "ET2_706.1.2.4"] conns=[Delta Wye ] kvs=[13.8 0.44] taps=[1.0 1.0 1.0] kvas=[15.0 15.0 15.0] %loadloss=1.933 %noloadloss=0.500
New "Reactor.TRF_2_706 phases=1 bus1="ET2_706.4" R=15 X=0 basefreq=60

New "Transformer.TRF_28_711" phases=2 windings=3 buses=["38271.1.2" "ET28_711.1.2.4"] conns=[Delta Wye ] kvs=[13.8 0.44] taps=[1.0 1.0 1.0] kvas=[15.0 15.0 15.0] %loadloss=1.933 %noloadloss=0.500
New "Reactor.TRF_28_711 phases=1 bus1="ET28_711.4" R=15 X=0 basefreq=60

New "Transformer.TRF_2_714" phases=1 windings=3 buses=["39921.3" "ET2_714.1.2.4"] conns=[Delta Wye ] kvs=[13.8 0.44] taps=[1.0 1.0 1.0] kvas=[5.0 5.0 5.0] %loadloss=2.100 %noloadloss=0.700
New "Reactor.TRF_2_714 phases=1 bus1="ET2_714.4" R=15 X=0 basefreq=60

New "Transformer.TRF_2_1153" phases=1 windings=3 buses=["69861.1" "ET2_1153.1.2.4"] conns=[Delta Wye ] kvs=[23 0.44] taps=[1.0 1.0 1.0] kvas=[15.0 15.0 15.0] %loadloss=1.767 %noloadloss=0.433
New "Reactor.TRF_2_1153 phases=1 bus1="ET2_1153.4" R=15 X=0 basefreq=60

New "Transformer.TRF_2_1038" phases=2 windings=3 buses=["67561.1.2" "ET2_1038.1.2.4"] conns=[Delta Wye ] kvs=[13.8 0.44] taps=[1.0 1.0 1.0] kvas=[15.0 15.0 15.0] %loadloss=1.933 %noloadloss=0.500
New "Reactor.TRF_2_1038 phases=1 bus1="ET2_1038.4" R=15 X=0 basefreq=60

New "Transformer.TRF_2_2459" phases=1 windings=3 buses=["379091.1" "ET2_2459.1.2.4"] conns=[Delta Wye ] kvs=[23 0.38] taps=[1.0 1.0 1.0] kvas=[5.0 5.0 5.0] %loadloss=2.100 %noloadloss=0.700
New "Reactor.TRF_2_2459 phases=1 bus1="ET2_2459.4" R=15 X=0 basefreq=60

New "Transformer.TRF_2_2172" phases=3 windings=2 buses=["55051.1.2.3" "ET2_2172.1.2.3.4"] conns=[Delta Wye ] kvs=[23 0.38] taps=[1.0 1.0] kvas=[75.0 75.0] %loadloss=3.840 %noloadloss=0.967
New "Reactor.TRF_2_2172 phases=1 bus1="ET2_2172.4" R=15 X=0 basefreq=60

New "Transformer.TRF_2_707" phases=1 windings=3 buses=["65041.2" "ET2_707.1.2.4"] conns=[Delta Wye ] kvs=[23 0.38] taps=[1.0 1.0 1.0] kvas=[15.0 15.0 15.0] %loadloss=1.767 %noloadloss=0.433
New "Reactor.TRF_2_707 phases=1 bus1="ET2_707.4" R=15 X=0 basefreq=60

New "Transformer.TRF_2_3796" phases=3 windings=2 buses=["238071.1.2.3" "ET2_3796.1.2.3.4"] conns=[Delta Wye ] kvs=[23 0.38] taps=[1.0 1.0] kvas=[30.0 30.0] %loadloss=2.100 %noloadloss=0.533
New "Reactor.TRF_2_3796 phases=1 bus1="ET2_3796.4" R=15 X=0 basefreq=60

New "Transformer.TRF_2_1831" phases=1 windings=3 buses=["57971.2" "ET2_1831.1.2.4"] conns=[Delta Wye ] kvs=[23 0.38] taps=[1.0 1.0 1.0] kvas=[5.0 5.0 5.0] %loadloss=2.100 %noloadloss=0.700
New "Reactor.TRF_2_1831 phases=1 bus1="ET2_1831.4" R=15 X=0 basefreq=60

New "Transformer.TRF_2_2380" phases=1 windings=3 buses=["372751.3" "ET2_2380.1.2.4"] conns=[Delta Wye ] kvs=[13.8 0.44] taps=[1.0 1.0 1.0] kvas=[10.0 10.0 10.0] %loadloss=1.950 %noloadloss=0.500
New "Reactor.TRF_2_2380 phases=1 bus1="ET2_2380.4" R=15 X=0 basefreq=60

New "Transformer.TRF_2_1936" phases=1 windings=3 buses=["65881.3" "ET2_1936.1.2.4"] conns=[Delta Wye ] kvs=[13.8 0.44] taps=[1.0 1.0 1.0] kvas=[7.5 7.5 7.5] %loadloss=2.600 %noloadloss=0.667
New "Reactor.TRF_2_1936 phases=1 bus1="ET2_1936.4" R=15 X=0 basefreq=60

New "Transformer.TRF_2_3510" phases=1 windings=3 buses=["622821.2" "ET2_3510.1.2.4"] conns=[Delta Wye ] kvs=[13.8 0.44] taps=[1.0 1.0 1.0] kvas=[5.0 5.0 5.0] %loadloss=2.100 %noloadloss=0.700
New "Reactor.TRF_2_3510 phases=1 bus1="ET2_3510.4" R=15 X=0 basefreq=60

New "Transformer.TRF_2_3362" phases=1 windings=3 buses=["69731.1" "ET2_3362.1.2.4"] conns=[Delta Wye ] kvs=[13.8 0.44] taps=[1.0 1.0 1.0] kvas=[10.0 10.0 10.0] %loadloss=1.950 %noloadloss=0.500
New "Reactor.TRF_2_3362 phases=1 bus1="ET2_3362.4" R=15 X=0 basefreq=60

New "Transformer.TRF_2_4762" phases=3 windings=2 buses=["651571.1.2.3" "ET2_4762.1.2.3.4"] conns=[Delta Wye ] kvs=[13.8 0.44] taps=[1.0 1.0] kvas=[225.0 225.0] %loadloss=1.280 %noloadloss=0.322
New "Reactor.TRF_2_4762 phases=1 bus1="ET2_4762.4" R=15 X=0 basefreq=60

New "Transformer.TRF_28_1944" phases=1 windings=3 buses=["73241.1" "ET28_1944.1.2.4"] conns=[Delta Wye ] kvs=[13.8 0.44] taps=[1.0 1.0 1.0] kvas=[15.0 15.0 15.0] %loadloss=1.767 %noloadloss=0.433
New "Reactor.TRF_28_1944 phases=1 bus1="ET28_1944.4" R=15 X=0 basefreq=60

New "Transformer.TRF_2_715" phases=3 windings=2 buses=["40031.1.2.3" "ET2_715.1.2.3.4"] conns=[Delta Wye ] kvs=[13.8 0.44] taps=[1.0 1.0] kvas=[30.0 30.0] %loadloss=2.100 %noloadloss=0.533
New "Reactor.TRF_2_715 phases=1 bus1="ET2_715.4" R=15 X=0 basefreq=60

New "Transformer.TRF_2_704" phases=1 windings=3 buses=["68721.2" "ET2_704.1.2.4"] conns=[Delta Wye ] kvs=[23 0.44] taps=[1.0 1.0 1.0] kvas=[10.0 10.0 10.0] %loadloss=1.950 %noloadloss=0.500
New "Reactor.TRF_2_704 phases=1 bus1="ET2_704.4" R=15 X=0 basefreq=60

New "Transformer.TRF_2_1737" phases=1 windings=3 buses=["69781.1" "ET2_1737.1.2.4"] conns=[Delta Wye ] kvs=[23 0.38] taps=[1.0 1.0 1.0] kvas=[10.0 10.0 10.0] %loadloss=1.950 %noloadloss=0.500
New "Reactor.TRF_2_1737 phases=1 bus1="ET2_1737.4" R=15 X=0 basefreq=60

New "Transformer.TRF_2_705" phases=2 windings=3 buses=["70791.3.1" "ET2_705.1.2.4"] conns=[Delta Wye ] kvs=[13.8 0.44] taps=[1.0 1.0 1.0] kvas=[10.0 10.0 10.0] %loadloss=1.150 %noloadloss=0.400
New "Reactor.TRF_2_705 phases=1 bus1="ET2_705.4" R=15 X=0 basefreq=60

New "Transformer.TRF_2_2141" phases=1 windings=2 buses=["258021.2" "ET2_2141.1.2.4"] conns=[Delta Wye ] kvs=[13.8 0.22] taps=[0.957 0.957] kvas=[5.0 5.0] %loadloss=2.100 %noloadloss=0.700
New "Reactor.TRF_2_2141 phases=1 bus1="ET2_2141.4" R=15 X=0 basefreq=60

New "Transformer.TRF_2_6425" phases=1 windings=3 buses=["55151.1" "ET2_6425.1.2.4"] conns=[Delta Wye ] kvs=[23 0.44] taps=[1.0 1.0 1.0] kvas=[10.0 10.0 10.0] %loadloss=1.950 %noloadloss=0.500
New "Reactor.TRF_2_6425 phases=1 bus1="ET2_6425.4" R=15 X=0 basefreq=60

New "Transformer.TRF_2_2880" phases=3 windings=2 buses=["307381.1.2.3" "ET2_2880.1.2.3.4"] conns=[Delta Wye ] kvs=[13.8 0.44] taps=[1.0 1.0] kvas=[30.0 30.0] %loadloss=2.100 %noloadloss=0.533
New "Reactor.TRF_2_2880 phases=1 bus1="ET2_2880.4" R=15 X=0 basefreq=60

New "Transformer.TRF_2_3526" phases=1 windings=3 buses=["55871.2" "ET2_3526.1.2.4"] conns=[Delta Wye ] kvs=[23 0.38] taps=[0.957 0.957 0.957] kvas=[10.0 10.0 10.0] %loadloss=1.950 %noloadloss=0.500
New "Reactor.TRF_2_3526 phases=1 bus1="ET2_3526.4" R=15 X=0 basefreq=60

New "Transformer.TRF_2_4994" phases=1 windings=3 buses=["69651.1" "ET2_4994.1.2.4"] conns=[Delta Wye ] kvs=[13.8 0.44] taps=[0.957 0.957 0.957] kvas=[10.0 10.0 10.0] %loadloss=1.950 %noloadloss=0.500
New "Reactor.TRF_2_4994 phases=1 bus1="ET2_4994.4" R=15 X=0 basefreq=60

New "Transformer.TRF_2_3346" phases=1 windings=2 buses=["51881.1" "ET2_3346.1.4"] conns=[Delta Wye ] kvs=[13.8 0.44] taps=[0.957 0.957] kvas=[10.0 10.0] %loadloss=1.950 %noloadloss=0.500
New "Reactor.TRF_2_3346 phases=1 bus1="ET2_3346.4" R=15 X=0 basefreq=60

