New "Line.SBT_34475" phases=3 bus1="BT802041.1.2.3.4" bus2="BT751661.1.2.3.4" linecode="74_4" length=0.03100 units=km
New "Line.SBT_33606" phases=3 bus1="BT792981.1.2.3.4" bus2="ET2_449.1.2.3.4" linecode="16_4" length=0.04958 units=km
New "Line.SBT_32969" phases=2 bus1="BT65131.1.2.4" bus2="ET2_3969.1.2.4" linecode="44_3" length=0.14195 units=km
New "Line.SBT_32970" phases=2 bus1="BT65141.1.2.4" bus2="BT65131.1.2.4" linecode="44_3" length=0.07908 units=km
New "Line.SBT_32971" phases=2 bus1="BT65151.1.2.4" bus2="BT65141.1.2.4" linecode="44_3" length=0.08395 units=km
New "Line.SBT_32972" phases=2 bus1="BT65161.1.2.4" bus2="BT65151.1.2.4" linecode="44_3" length=0.06912 units=km
New "Line.SBT_32974" phases=2 bus1="BT397982.1.2.4" bus2="BT65131.1.2.4" linecode="44_3" length=0.12442 units=km
New "Line.SBT_32975" phases=2 bus1="BT660441.1.2.4" bus2="BT397982.1.2.4" linecode="44_3" length=0.03758 units=km
New "Line.SBT_32413" phases=2 bus1="BT258572.1.2.4" bus2="ET28_2157.1.2.4" linecode="59_3" length=0.06168 units=km
New "Line.SBT_32414" phases=2 bus1="BT258581.1.2.4" bus2="BT258572.1.2.4" linecode="44_3" length=0.08523 units=km
New "Line.SBT_32415" phases=1 bus1="BT258591.1.4" bus2="BT258581.1.4" linecode="60_2" length=0.02663 units=km
New "Line.SBT_31741" phases=3 bus1="BT772251.1.2.3.4" bus2="ET2_5729.1.2.3.4" linecode="73_4" length=0.05524 units=km
New "Line.SBT_31661" phases=2 bus1="BT771601.1.2.4" bus2="ET2_5686.1.2.4" linecode="59_3" length=0.06228 units=km
New "Line.SBT_31662" phases=2 bus1="BT771611.1.2.4" bus2="BT771601.1.2.4" linecode="59_3" length=0.07528 units=km
New "Line.SBT_29457" phases=3 bus1="BT751511.1.2.3.4" bus2="ET28_5515.1.2.3.4" linecode="74_4" length=0.04100 units=km
New "Line.SBT_29460" phases=3 bus1="BT751661.1.2.3.4" bus2="ET28_5516.1.2.3.4" linecode="74_4" length=0.04500 units=km
New "Line.SBT_29461" phases=3 bus1="BT751681.1.2.3.4" bus2="ET28_5516.1.2.3.4" linecode="73_4" length=0.10900 units=km
New "Line.SBT_2922" phases=2 bus1="BT69662.1.2.4" bus2="BT69691.1.2.4" linecode="44_3" length=0.08773 units=km
New "Line.SBT_29261" phases=3 bus1="BT749851.1.2.3.4" bus2="ET2_448.1.2.3.4" linecode="97_4" length=0.02600 units=km
New "Line.SBT_29262" phases=3 bus1="BT749861.1.2.3.4" bus2="BT749851.1.2.3.4" linecode="97_4" length=0.08500 units=km
New "Line.SBT_29263" phases=3 bus1="BT749871.1.2.3.4" bus2="BT749861.1.2.3.4" linecode="97_4" length=0.08500 units=km
New "Line.SBT_11388" phases=2 bus1="BT258561.1.2.4" bus2="BT258551.1.2.4" linecode="44_3" length=0.08228 units=km
New "Line.SBT_18360" phases=3 bus1="BT55991.1.2.3.4" bus2="BT56001.1.2.3.4" linecode="75_4" length=0.08676 units=km
New "Line.SBT_14203" phases=2 bus1="BT34641.1.2.4" bus2="ET2_3084.1.2.4" linecode="44_3" length=0.06736 units=km
New "Line.SBT_11201" phases=3 bus1="BT39261.1.2.3.4" bus2="BT661501.1.2.3.4" linecode="75_4" length=0.06021 units=km
New "Line.SBT_11386" phases=2 bus1="BT58061.1.2.4" bus2="ET28_710.1.2.4" linecode="44_3" length=0.06700 units=km
New "Line.SBT_28919" phases=1 bus1="BT69801.1.4" bus2="BT69791.1.4" linecode="60_2" length=0.06237 units=km
New "Line.SBT_3180" phases=2 bus1="BT51811.1.2.4" bus2="BT51801.1.2.4" linecode="44_3" length=0.09025 units=km
New "Line.SBT_3197" phases=1 bus1="BT5071.1.4" bus2="BT5061.1.4" linecode="60_2" length=0.02941 units=km
New "Line.SBT_28085" phases=1 bus1="BT707591.1.4" bus2="BT40931.1.4" linecode="62_2" length=0.05941 units=km
New "Line.SBT_28088" phases=2 bus1="BT723721.1.2.4" bus2="ET2_4994.1.2.4" linecode="44_3" length=0.04328 units=km
New "Line.SBT_28089" phases=2 bus1="BT69671.1.2.4" bus2="BT723721.1.2.4" linecode="44_3" length=0.04614 units=km
New "Line.SBT_28099" phases=2 bus1="BT724571.1.2.4" bus2="BT724561.1.2.4" linecode="88_3" length=0.04383 units=km
New "Line.SBT_3409" phases=1 bus1="BT19761.1.4" bus2="BT19751.1.4" linecode="60_2" length=0.08110 units=km
New "Line.SBT_27583" phases=2 bus1="BT709571.1.2.4" bus2="BT709561.1.2.4" linecode="76_3" length=0.05045 units=km
New "Line.SBT_27226" phases=3 bus1="BT40011.1.2.3.4" bus2="ET28_4233.1.2.3.4" linecode="97_4" length=0.05894 units=km
New "Line.SBT_27231" phases=3 bus1="BT661501.1.2.3.4" bus2="BT39281.1.2.3.4" linecode="75_4" length=0.04901 units=km
New "Line.SBT_27169" phases=3 bus1="BT647101.1.2.3.4" bus2="ET2_4049.1.2.3.4" linecode="75_4" length=0.02140 units=km
New "Line.SBT_26884" phases=3 bus1="BT39281.1.2.3.4" bus2="ET28_713.1.2.3.4" linecode="75_4" length=0.01523 units=km
New "Line.SBT_26885" phases=3 bus1="BT921.1.2.3.4" bus2="BT533751.1.2.3.4" linecode="75_4" length=0.06297 units=km
New "Line.SBT_26585" phases=1 bus1="BT35511.1.4" bus2="BT664601.1.4" linecode="60_2" length=0.06515 units=km
New "Line.SBT_26553" phases=2 bus1="BT34631.1.2.4" bus2="ET2_3084.1.2.4" linecode="44_3" length=0.10946 units=km
New "Line.SBT_26554" phases=1 bus1="BT34651.1.4" bus2="BT257991.1.4" linecode="60_2" length=0.19300 units=km
New "Line.SBT_26555" phases=2 bus1="BT34751.1.2.4" bus2="ET2_1281.1.2.4" linecode="44_3" length=0.09080 units=km
New "Line.SBT_26086" phases=2 bus1="BT478991.1.2.4" bus2="BT478741.1.2.4" linecode="59_3" length=0.11236 units=km
New "Line.SBT_26087" phases=1 bus1="BT479011.1.4" bus2="ET2_3184.1.4" linecode="62_2" length=0.04686 units=km
New "Line.SBT_25988" phases=1 bus1="BT478691.1.4" bus2="BT478681.1.4" linecode="62_2" length=0.10153 units=km
New "Line.SBT_25897" phases=1 bus1="BT627831.1.4" bus2="ET2_2946.1.4" linecode="60_2" length=0.07992 units=km
New "Line.SBT_25572" phases=1 bus1="BT55191.2.4" bus2="ET2_3401.2.4" linecode="62_2" length=0.05408 units=km
New "Line.SBT_25471" phases=2 bus1="BT18141.1.2.4" bus2="BT75901.1.2.4" linecode="59_3" length=0.03688 units=km
New "Line.SBT_25323" phases=3 bus1="BT941.1.2.3.4" bus2="BT951.1.2.3.4" linecode="75_4" length=0.04400 units=km
New "Line.SBT_25257" phases=2 bus1="BT73251.1.2.4" bus2="ET28_1944.1.2.4" linecode="44_3" length=0.08476 units=km
New "Line.SBT_25238" phases=2 bus1="BT73281.1.2.4" bus2="BT73271.1.2.4" linecode="44_3" length=0.07747 units=km
New "Line.SBT_24999" phases=2 bus1="BT58071.1.2.4" bus2="BT58061.1.2.4" linecode="44_3" length=0.08609 units=km
New "Line.SBT_25000" phases=2 bus1="BT258551.1.2.4" bus2="BT258541.1.2.4" linecode="44_3" length=0.07622 units=km
New "Line.SBT_24900" phases=3 bus1="BT39271.1.2.3.4" bus2="BT39261.1.2.3.4" linecode="75_4" length=0.08387 units=km
New "Line.SBT_24854" phases=2 bus1="BT348591.1.2.4" bus2="ET28_710.1.2.4" linecode="44_3" length=0.08222 units=km
New "Line.SBT_22976" phases=2 bus1="BT75901.1.2.4" bus2="ET2_3362.1.2.4" linecode="59_3" length=0.03766 units=km
New "Line.SBT_21472" phases=1 bus1="BT497731.2.4" bus2="BT497721.2.4" linecode="62_2" length=0.09440 units=km
New "Line.SBT_20728" phases=1 bus1="BT19741.1.4" bus2="ET2_703.1.4" linecode="60_2" length=0.07071 units=km
New "Line.SBT_20704" phases=2 bus1="BT38261.1.2.4" bus2="ET28_711.1.2.4" linecode="44_3" length=0.08544 units=km
New "Line.SBT_20706" phases=2 bus1="BT34581.1.2.4" bus2="BT38261.1.2.4" linecode="44_3" length=0.11100 units=km
New "Line.SBT_20713" phases=3 bus1="BT39161.1.2.3.4" bus2="BT39151.1.2.3.4" linecode="97_4" length=0.05197 units=km
New "Line.SBT_20714" phases=1 bus1="BT39221.1.4" bus2="BT39171.1.4" linecode="60_2" length=0.07788 units=km
New "Line.SBT_20725" phases=3 bus1="BT39971.1.2.3.4" bus2="BT40021.1.2.3.4" linecode="97_4" length=0.08509 units=km
New "Line.SBT_20726" phases=1 bus1="BT340661.1.4" bus2="BT40021.1.4" linecode="60_2" length=0.18882 units=km
New "Line.SBT_20693" phases=2 bus1="BT65231.1.2.4" bus2="ET2_1218.1.2.4" linecode="44_3" length=0.07669 units=km
New "Line.SBT_20699" phases=3 bus1="BT40021.1.2.3.4" bus2="ET2_715.1.2.3.4" linecode="97_4" length=0.07690 units=km
New "Line.SBT_20587" phases=3 bus1="BT56001.1.2.3.4" bus2="BT56011.1.2.3.4" linecode="75_4" length=0.10559 units=km
New "Line.SBT_20510" phases=1 bus1="BT377061.1.4" bus2="ET2_2380.1.4" linecode="60_2" length=0.08701 units=km
New "Line.SBT_20511" phases=1 bus1="BT372761.1.4" bus2="ET2_2380.1.4" linecode="60_2" length=0.10405 units=km
New "Line.SBT_20512" phases=1 bus1="BT377071.1.4" bus2="BT377061.1.4" linecode="60_2" length=0.13182 units=km
New "Line.SBT_20518" phases=1 bus1="BT377081.1.4" bus2="BT377071.1.4" linecode="60_2" length=0.08006 units=km
New "Line.SBT_20479" phases=1 bus1="BT337611.2.4" bus2="BT337621.2.4" linecode="62_2" length=0.08343 units=km
New "Line.SBT_20449" phases=2 bus1="BT67581.1.2.4" bus2="BT67571.1.2.4" linecode="44_3" length=0.08481 units=km
New "Line.SBT_20450" phases=1 bus1="BT337621.2.4" bus2="ET2_2215.2.4" linecode="62_2" length=0.09101 units=km
New "Line.SBT_20454" phases=1 bus1="BT345651.1.4" bus2="BT345641.1.4" linecode="60_2" length=0.09964 units=km
New "Line.SBT_20455" phases=1 bus1="BT345671.1.4" bus2="BT345661.1.4" linecode="60_2" length=0.09618 units=km
New "Line.SBT_20462" phases=2 bus1="BT67061.1.2.4" bus2="ET2_705.1.2.4" linecode="44_3" length=0.09476 units=km
New "Line.SBT_20463" phases=2 bus1="BT70811.1.2.4" bus2="BT70801.1.2.4" linecode="44_3" length=0.08538 units=km
New "Line.SBT_20464" phases=1 bus1="BT67081.1.4" bus2="BT67071.1.4" linecode="60_2" length=0.10288 units=km
New "Line.SBT_20437" phases=1 bus1="BT258051.1.4" bus2="ET2_2141.1.4" linecode="60_2" length=0.02508 units=km
New "Line.SBT_20438" phases=3 bus1="BT55061.1.2.3.4" bus2="ET2_2172.1.2.3.4" linecode="73_4" length=0.08338 units=km
New "Line.SBT_20405" phases=3 bus1="BT386941.1.2.3.4" bus2="BT386951.1.2.3.4" linecode="73_4" length=0.06836 units=km
New "Line.SBT_20335" phases=1 bus1="BT5051.1.4" bus2="ET2_706.1.4" linecode="60_2" length=0.03362 units=km
New "Line.SBT_20336" phases=1 bus1="BT64521.2.4" bus2="ET2_706.2.4" linecode="60_2" length=0.06877 units=km
New "Line.SBT_20279" phases=1 bus1="BT68861.1.4" bus2="BT68871.1.4" linecode="60_2" length=0.12906 units=km
New "Line.SBT_20280" phases=2 bus1="BT69871.1.2.4" bus2="ET2_1153.1.2.4" linecode="44_3" length=0.06220 units=km
New "Line.SBT_20285" phases=2 bus1="BT69701.1.2.4" bus2="BT69721.1.2.4" linecode="44_3" length=0.05924 units=km
New "Line.SBT_20182" phases=2 bus1="BT51791.1.2.4" bus2="BT69891.1.2.4" linecode="44_3" length=0.22287 units=km
New "Line.SBT_20183" phases=2 bus1="BT51801.1.2.4" bus2="BT51791.1.2.4" linecode="44_3" length=0.12220 units=km
New "Line.SBT_20153" phases=1 bus1="BT64531.2.4" bus2="BT64521.2.4" linecode="60_2" length=0.10402 units=km
New "Line.SBT_20137" phases=2 bus1="BT69881.1.2.4" bus2="BT69871.1.2.4" linecode="44_3" length=0.07778 units=km
New "Line.SBT_20138" phases=2 bus1="BT69891.1.2.4" bus2="BT69881.1.2.4" linecode="44_3" length=0.06485 units=km
New "Line.SBT_20084" phases=1 bus1="BT69851.2.4" bus2="BT69831.2.4" linecode="60_2" length=0.07240 units=km
New "Line.SBT_20040" phases=1 bus1="BT65991.1.4" bus2="BT65981.1.4" linecode="60_2" length=0.08896 units=km
New "Line.SBT_20022" phases=1 bus1="BT65031.1.4" bus2="ET2_707.1.4" linecode="60_2" length=0.12714 units=km
New "Line.SBT_20024" phases=1 bus1="BT65081.1.4" bus2="BT65071.1.4" linecode="60_2" length=0.07593 units=km
New "Line.SBT_20027" phases=1 bus1="BT65011.1.4" bus2="BT65021.1.4" linecode="60_2" length=0.09124 units=km
New "Line.SBT_20028" phases=1 bus1="BT65001.1.4" bus2="BT65011.1.4" linecode="60_2" length=0.10694 units=km
New "Line.SBT_19997" phases=2 bus1="BT19671.1.2.4" bus2="BT497131.1.2.4" linecode="59_3" length=0.03985 units=km
New "Line.SBT_19861" phases=2 bus1="BT69771.1.2.4" bus2="BT69761.1.2.4" linecode="44_3" length=0.10171 units=km
New "Line.SBT_19862" phases=1 bus1="BT69751.2.4" bus2="BT69741.2.4" linecode="60_2" length=0.08683 units=km
New "Line.SBT_19863" phases=2 bus1="BT69831.1.2.4" bus2="BT69821.1.2.4" linecode="59_3" length=0.15685 units=km
New "Line.SBT_19869" phases=1 bus1="BT497661.1.4" bus2="ET2_3346.1.4" linecode="60_2" length=0.03189 units=km
New "Line.SBT_19740" phases=2 bus1="BT33991.1.2.4" bus2="BT33971.1.2.4" linecode="44_3" length=0.09772 units=km
New "Line.SBT_19741" phases=1 bus1="BT376581.1.4" bus2="BT53211.1.4" linecode="60_2" length=0.05672 units=km
New "Line.SBT_19750" phases=1 bus1="BT51871.1.4" bus2="BT51861.1.4" linecode="60_2" length=0.08469 units=km
New "Line.SBT_19657" phases=1 bus1="BT307391.2.4" bus2="ET2_2880.2.4" linecode="62_2" length=0.05315 units=km
New "Line.SBT_3945" phases=1 bus1="BT39241.1.4" bus2="BT39231.1.4" linecode="60_2" length=0.08204 units=km
New "Line.SBT_2633" phases=1 bus1="BT65021.1.4" bus2="BT65031.1.4" linecode="60_2" length=0.09762 units=km
New "Line.SBT_2641" phases=1 bus1="BT26631.1.4" bus2="BT65001.1.4" linecode="60_2" length=0.04675 units=km
New "Line.SBT_18363" phases=1 bus1="BT39181.1.4" bus2="BT39171.1.4" linecode="60_2" length=0.04810 units=km
New "Line.SBT_17361" phases=1 bus1="BT622851.1.4" bus2="ET2_3526.1.4" linecode="62_2" length=0.05100 units=km
New "Line.SBT_16957" phases=2 bus1="BT724561.1.2.4" bus2="BT724551.1.2.4" linecode="88_3" length=0.05964 units=km
New "Line.SBT_16931" phases=1 bus1="BT707601.1.4" bus2="BT707591.1.4" linecode="62_2" length=0.04617 units=km
New "Line.SBT_16932" phases=1 bus1="BT707611.1.4" bus2="BT707601.1.4" linecode="62_2" length=0.05187 units=km
New "Line.SBT_16956" phases=3 bus1="BT724551.1.2.3.4" bus2="ET2_3461.1.2.3.4" linecode="74_4" length=0.06006 units=km
New "Line.SBT_16594" phases=3 bus1="BT65901.1.2.3.4" bus2="ET2_4550.1.2.3.4" linecode="73_4" length=0.08711 units=km
New "Line.SBT_16595" phases=2 bus1="BT65871.1.2.4" bus2="ET2_4550.1.2.4" linecode="91_3" length=0.12120 units=km
New "Line.SBT_16090" phases=3 bus1="BT386951.1.2.3.4" bus2="ET2_2172.1.2.3.4" linecode="73_4" length=0.09986 units=km
New "Line.SBT_16047" phases=2 bus1="BT40931.1.2.4" bus2="ET28_4602.1.2.4" linecode="76_3" length=0.07125 units=km
New "Line.SBT_16048" phases=2 bus1="BT709561.1.2.4" bus2="ET28_4602.1.2.4" linecode="76_3" length=0.05685 units=km
New "Line.SBT_16049" phases=2 bus1="BT709581.1.2.4" bus2="BT709571.1.2.4" linecode="76_3" length=0.04751 units=km
New "Line.SBT_16050" phases=2 bus1="BT709591.1.2.4" bus2="BT709581.1.2.4" linecode="76_3" length=0.04562 units=km
New "Line.SBT_16051" phases=2 bus1="BT709551.1.2.4" bus2="BT709571.1.2.4" linecode="76_3" length=0.03089 units=km
New "Line.SBT_16021" phases=1 bus1="BT18172.1.4" bus2="BT18141.1.4" linecode="62_2" length=0.07403 units=km
New "Line.SBT_15939" phases=1 bus1="BT717751.1.4" bus2="BT40011.1.4" linecode="60_2" length=0.05771 units=km
New "Line.SBT_15641" phases=1 bus1="BT664601.1.4" bus2="BT34761.1.4" linecode="60_2" length=0.03634 units=km
New "Line.SBT_15564" phases=1 bus1="BT280781.1.4" bus2="ET2_4255.1.4" linecode="62_2" length=0.04837 units=km
New "Line.SBT_15421" phases=3 bus1="BT951.1.2.3.4" bus2="BT931.1.2.3.4" linecode="75_4" length=0.05515 units=km
New "Line.SBT_15308" phases=3 bus1="BT533751.1.2.3.4" bus2="BT647101.1.2.3.4" linecode="75_4" length=0.05500 units=km
New "Line.SBT_15225" phases=2 bus1="BT497131.1.2.4" bus2="ET2_1114.1.2.4" linecode="59_3" length=0.02559 units=km
New "Line.SBT_15191" phases=2 bus1="BT655921.1.2.4" bus2="ET2_2380.1.2.4" linecode="59_3" length=0.11573 units=km
New "Line.SBT_15192" phases=1 bus1="BT655941.1.4" bus2="BT372791.1.4" linecode="62_2" length=0.04492 units=km
New "Line.SBT_14276" phases=1 bus1="BT622831.1.4" bus2="ET2_3510.1.4" linecode="77_2" length=0.03900 units=km
New "Line.SBT_14204" phases=1 bus1="BT257991.1.4" bus2="BT34641.1.4" linecode="60_2" length=0.05099 units=km
New "Line.SBT_14205" phases=2 bus1="BT34731.1.2.4" bus2="ET2_1281.1.2.4" linecode="44_3" length=0.05101 units=km
New "Line.SBT_14206" phases=2 bus1="BT34761.1.2.4" bus2="BT34751.1.2.4" linecode="44_3" length=0.08023 units=km
New "Line.SBT_14057" phases=1 bus1="BT622841.2.4" bus2="ET2_3184.2.4" linecode="62_2" length=0.04940 units=km
New "Line.SBT_13865" phases=1 bus1="BT603541.1.4" bus2="ET2_3692.1.4" linecode="62_2" length=0.03672 units=km
New "Line.SBT_13774" phases=1 bus1="BT651531.1.4" bus2="ET2_703.1.4" linecode="60_2" length=0.04632 units=km
New "Line.SBT_13788" phases=1 bus1="BT649111.1.4" bus2="BT479001.1.4" linecode="62_2" length=0.06140 units=km
New "Line.SBT_13554" phases=1 bus1="BT627441.2.4" bus2="BT65872.2.4" linecode="60_2" length=0.07001 units=km
New "Line.SBT_13351" phases=2 bus1="BT478741.1.2.4" bus2="ET2_3183.1.2.4" linecode="59_3" length=0.13103 units=km
New "Line.SBT_13352" phases=2 bus1="BT479001.1.2.4" bus2="BT478991.1.2.4" linecode="59_3" length=0.08820 units=km
New "Line.SBT_13176" phases=1 bus1="BT478681.1.4" bus2="ET2_3183.1.4" linecode="62_2" length=0.07566 units=km
New "Line.SBT_13055" phases=1 bus1="BT53211.1.4" bus2="ET2_2942.1.4" linecode="60_2" length=0.04205 units=km
New "Line.SBT_13014" phases=1 bus1="BT627841.1.4" bus2="BT627831.1.4" linecode="60_2" length=0.07517 units=km
New "Line.SBT_12237" phases=2 bus1="BT18151.1.2.4" bus2="BT18141.1.2.4" linecode="59_3" length=0.07237 units=km
New "Line.SBT_11813" phases=2 bus1="BT73271.1.2.4" bus2="ET28_1944.1.2.4" linecode="44_3" length=0.10104 units=km
New "Line.SBT_11814" phases=1 bus1="BT73261.1.4" bus2="BT73251.1.4" linecode="60_2" length=0.14946 units=km
New "Line.SBT_11448" phases=2 bus1="BT258571.1.2.4" bus2="BT258561.1.2.4" linecode="44_3" length=0.07690 units=km
New "Line.SBT_11387" phases=2 bus1="BT258541.1.2.4" bus2="BT348591.1.2.4" linecode="44_3" length=0.07211 units=km
New "Line.SBT_11202" phases=3 bus1="BT931.1.2.3.4" bus2="BT39281.1.2.3.4" linecode="75_4" length=0.05135 units=km
New "Line.SBT_10373" phases=2 bus1="BT66001.1.2.4" bus2="ET2_708.1.2.4" linecode="44_3" length=0.07601 units=km
New "Line.SBT_5307" phases=1 bus1="BT497971.1.4" bus2="ET2_1280.1.4" linecode="62_2" length=0.06379 units=km
New "Line.SBT_5309" phases=1 bus1="BT33951.1.4" bus2="BT497971.1.4" linecode="62_2" length=0.05566 units=km
New "Line.SBT_5311" phases=1 bus1="BT498011.1.4" bus2="BT19661.1.4" linecode="62_2" length=0.03517 units=km
New "Line.SBT_5312" phases=1 bus1="BT498021.1.4" bus2="BT498011.1.4" linecode="62_2" length=0.13520 units=km
New "Line.SBT_5313" phases=1 bus1="BT498031.1.4" bus2="BT498021.1.4" linecode="62_2" length=0.08422 units=km
New "Line.SBT_5193" phases=1 bus1="BT497721.2.4" bus2="ET2_2942.2.4" linecode="62_2" length=0.03406 units=km
New "Line.SBT_5199" phases=1 bus1="BT497671.1.4" bus2="BT497661.1.4" linecode="60_2" length=0.10464 units=km
New "Line.SBT_4965" phases=1 bus1="BT497751.2.4" bus2="BT497741.2.4" linecode="62_2" length=0.10602 units=km
New "Line.SBT_4967" phases=1 bus1="BT69661.1.4" bus2="ET2_4994.1.4" linecode="62_2" length=0.12331 units=km
New "Line.SBT_4768" phases=1 bus1="BT497741.2.4" bus2="BT497731.2.4" linecode="62_2" length=0.05622 units=km
New "Line.SBT_4574" phases=2 bus1="BT549511.1.2.4" bus2="BT549501.1.2.4" linecode="59_3" length=0.11662 units=km
New "Line.SBT_4156" phases=1 bus1="BT391581.1.4" bus2="ET2_1149.1.4" linecode="60_2" length=0.05743 units=km
New "Line.SBT_4074" phases=2 bus1="BT51821.1.2.4" bus2="BT51811.1.2.4" linecode="44_3" length=0.08902 units=km
New "Line.SBT_4075" phases=1 bus1="BT51831.1.4" bus2="BT51821.1.4" linecode="60_2" length=0.05604 units=km
New "Line.SBT_3942" phases=3 bus1="BT39211.1.2.3.4" bus2="BT39171.1.2.3.4" linecode="97_4" length=0.05096 units=km
New "Line.SBT_3943" phases=1 bus1="BT39231.1.4" bus2="BT39221.1.4" linecode="60_2" length=0.11322 units=km
New "Line.SBT_3944" phases=1 bus1="BT39201.1.4" bus2="BT39191.1.4" linecode="60_2" length=0.05646 units=km
New "Line.SBT_3946" phases=2 bus1="BT39931.1.2.4" bus2="ET2_714.1.2.4" linecode="44_3" length=0.04870 units=km
New "Line.SBT_3947" phases=2 bus1="BT39941.1.2.4" bus2="ET2_714.1.2.4" linecode="44_3" length=0.07788 units=km
New "Line.SBT_3948" phases=3 bus1="BT40041.1.2.3.4" bus2="ET2_715.1.2.3.4" linecode="92_4" length=0.09398 units=km
New "Line.SBT_3886" phases=3 bus1="BT39961.1.2.3.4" bus2="BT39971.1.2.3.4" linecode="97_4" length=0.07749 units=km
New "Line.SBT_3895" phases=3 bus1="BT56011.1.2.3.4" bus2="ET2_449.1.2.3.4" linecode="75_4" length=0.10429 units=km
New "Line.SBT_3896" phases=3 bus1="BT19781.1.2.3.4" bus2="ET2_703.1.2.3.4" linecode="97_4" length=0.07747 units=km
New "Line.SBT_3897" phases=1 bus1="BT345641.1.4" bus2="BT19781.1.4" linecode="60_2" length=0.04238 units=km
New "Line.SBT_3846" phases=3 bus1="BT40051.1.2.3.4" bus2="BT40041.1.2.3.4" linecode="92_4" length=0.06263 units=km
New "Line.SBT_3852" phases=2 bus1="BT40871.1.2.4" bus2="ET28_1210.1.2.4" linecode="59_3" length=0.04904 units=km
New "Line.SBT_3855" phases=1 bus1="BT38241.1.4" bus2="BT34581.1.4" linecode="60_2" length=0.11037 units=km
New "Line.SBT_3861" phases=1 bus1="BT40881.1.4" bus2="BT40871.1.4" linecode="60_2" length=0.10531 units=km
New "Line.SBT_3862" phases=2 bus1="BT40921.1.2.4" bus2="BT40931.1.2.4" linecode="76_3" length=0.07976 units=km
New "Line.SBT_3863" phases=1 bus1="BT40891.1.4" bus2="BT40881.1.4" linecode="60_2" length=0.14136 units=km
New "Line.SBT_3867" phases=3 bus1="BT39171.1.2.3.4" bus2="ET2_712.1.2.3.4" linecode="97_4" length=0.05644 units=km
New "Line.SBT_3868" phases=3 bus1="BT39151.1.2.3.4" bus2="ET2_712.1.2.3.4" linecode="97_4" length=0.05714 units=km
New "Line.SBT_3869" phases=3 bus1="BT38371.1.2.3.4" bus2="ET2_712.1.2.3.4" linecode="97_4" length=0.05714 units=km
New "Line.SBT_3870" phases=1 bus1="BT39191.1.4" bus2="BT39171.1.4" linecode="60_2" length=0.06573 units=km
New "Line.SBT_3509" phases=2 bus1="BT372771.1.2.4" bus2="BT655921.1.2.4" linecode="59_3" length=0.05142 units=km
New "Line.SBT_3511" phases=2 bus1="BT372791.1.2.4" bus2="BT372771.1.2.4" linecode="59_3" length=0.04472 units=km
New "Line.SBT_3405" phases=1 bus1="BT338161.1.4" bus2="BT337641.1.4" linecode="62_2" length=0.07558 units=km
New "Line.SBT_3408" phases=1 bus1="BT19751.1.4" bus2="BT19741.1.4" linecode="60_2" length=0.05104 units=km
New "Line.SBT_3410" phases=1 bus1="BT345661.1.4" bus2="BT345651.1.4" linecode="60_2" length=0.11792 units=km
New "Line.SBT_3425" phases=2 bus1="BT68731.1.2.4" bus2="ET2_704.1.2.4" linecode="91_3" length=0.03265 units=km
New "Line.SBT_3427" phases=2 bus1="BT70801.1.2.4" bus2="ET2_705.1.2.4" linecode="44_3" length=0.12813 units=km
New "Line.SBT_3428" phases=1 bus1="BT67071.1.4" bus2="BT67061.1.4" linecode="60_2" length=0.15088 units=km
New "Line.SBT_3432" phases=1 bus1="BT65101.1.4" bus2="BT65091.1.4" linecode="60_2" length=0.07690 units=km
New "Line.SBT_3380" phases=1 bus1="BT258041.1.4" bus2="ET2_2141.1.4" linecode="60_2" length=0.13214 units=km
New "Line.SBT_3381" phases=3 bus1="BT55071.1.2.3.4" bus2="BT55061.1.2.3.4" linecode="73_4" length=0.05803 units=km
New "Line.SBT_3402" phases=2 bus1="BT67571.1.2.4" bus2="ET2_1038.1.2.4" linecode="44_3" length=0.09626 units=km
New "Line.SBT_3403" phases=1 bus1="BT67591.1.4" bus2="BT67581.1.4" linecode="60_2" length=0.07545 units=km
New "Line.SBT_3404" phases=1 bus1="BT337641.1.4" bus2="ET2_2215.1.4" linecode="62_2" length=0.06395 units=km
New "Line.SBT_3266" phases=2 bus1="BT65872.1.2.4" bus2="ET2_1936.1.2.4" linecode="91_3" length=0.01063 units=km
New "Line.SBT_3267" phases=3 bus1="BT65911.1.2.3.4" bus2="BT65901.1.2.3.4" linecode="73_4" length=0.07441 units=km
New "Line.SBT_3195" phases=1 bus1="BT5061.1.4" bus2="ET2_706.1.4" linecode="60_2" length=0.08169 units=km
New "Line.SBT_3170" phases=2 bus1="BT19661.1.2.4" bus2="ET2_1114.1.2.4" linecode="44_3" length=0.05148 units=km
New "Line.SBT_3181" phases=1 bus1="BT69681.1.4" bus2="BT69671.1.4" linecode="60_2" length=0.06580 units=km
New "Line.SBT_3104" phases=1 bus1="BT51851.1.4" bus2="BT51841.1.4" linecode="60_2" length=0.08144 units=km
New "Line.SBT_3105" phases=1 bus1="BT69711.1.4" bus2="BT69701.1.4" linecode="60_2" length=0.06277 units=km
New "Line.SBT_3106" phases=2 bus1="BT69691.1.2.4" bus2="BT69701.1.2.4" linecode="44_3" length=0.08417 units=km
New "Line.SBT_3092" phases=1 bus1="BT68871.1.4" bus2="ET2_1149.1.4" linecode="60_2" length=0.09862 units=km
New "Line.SBT_2921" phases=1 bus1="BT51861.1.4" bus2="BT51851.1.4" linecode="60_2" length=0.10925 units=km
New "Line.SBT_2867" phases=1 bus1="BT5081.1.4" bus2="BT5061.1.4" linecode="60_2" length=0.09014 units=km
New "Line.SBT_2868" phases=1 bus1="BT1231.2.4" bus2="BT64531.2.4" linecode="60_2" length=0.11545 units=km
New "Line.SBT_2869" phases=2 bus1="BT65051.1.2.4" bus2="ET2_707.1.2.4" linecode="44_3" length=0.04460 units=km
New "Line.SBT_2842" phases=1 bus1="BT51841.1.4" bus2="ET2_1153.1.4" linecode="60_2" length=0.03454 units=km
New "Line.SBT_2843" phases=2 bus1="BT69721.1.2.4" bus2="ET2_1153.1.2.4" linecode="44_3" length=0.05818 units=km
New "Line.SBT_2743" phases=2 bus1="BT49051.1.2.4" bus2="ET2_1831.1.2.4" linecode="80_3" length=0.04830 units=km
New "Line.SBT_2631" phases=2 bus1="BT65061.1.2.4" bus2="BT65051.1.2.4" linecode="44_3" length=0.06466 units=km
New "Line.SBT_2634" phases=2 bus1="BT65071.1.2.4" bus2="BT65061.1.2.4" linecode="44_3" length=0.04950 units=km
New "Line.SBT_2640" phases=1 bus1="BT65091.1.4" bus2="BT65081.1.4" linecode="60_2" length=0.08246 units=km
New "Line.SBT_2599" phases=1 bus1="BT65971.1.4" bus2="BT66001.1.4" linecode="60_2" length=0.09899 units=km
New "Line.SBT_2600" phases=1 bus1="BT65981.1.4" bus2="BT65971.1.4" linecode="60_2" length=0.12379 units=km
New "Line.SBT_2585" phases=1 bus1="BT56111.1.4" bus2="ET2_1114.1.4" linecode="60_2" length=0.09957 units=km
New "Line.SBT_2510" phases=1 bus1="BT338171.1.4" bus2="BT338161.1.4" linecode="62_2" length=0.09311 units=km
New "Line.SBT_2346" phases=2 bus1="BT69761.1.2.4" bus2="ET2_1737.1.2.4" linecode="59_3" length=0.11498 units=km
New "Line.SBT_2347" phases=2 bus1="BT69741.1.2.4" bus2="BT69761.1.2.4" linecode="44_3" length=0.09377 units=km
New "Line.SBT_2348" phases=2 bus1="BT69811.1.2.4" bus2="BT20691.1.2.4" linecode="59_3" length=0.08963 units=km
New "Line.SBT_2349" phases=2 bus1="BT69821.1.2.4" bus2="BT69811.1.2.4" linecode="59_3" length=0.12181 units=km
New "Line.SBT_2350" phases=1 bus1="BT69841.1.4" bus2="BT69831.1.4" linecode="60_2" length=0.07128 units=km
New "Line.SBT_2337" phases=1 bus1="BT69791.1.4" bus2="ET2_1737.1.4" linecode="60_2" length=0.07892 units=km
New "Line.SBT_2338" phases=2 bus1="BT20691.1.2.4" bus2="ET2_1737.1.2.4" linecode="59_3" length=0.04754 units=km
New "Line.SBT_2136" phases=2 bus1="BT33971.1.2.4" bus2="ET2_1280.1.2.4" linecode="44_3" length=0.07708 units=km
New "Line.SBT_2137" phases=2 bus1="BT53221.1.2.4" bus2="BT33991.1.2.4" linecode="44_3" length=0.13382 units=km
New "Line.SBT_2138" phases=2 bus1="BT257981.1.2.4" bus2="BT53221.1.2.4" linecode="44_3" length=0.13893 units=km
New "Line.SBT_1987" phases=2 bus1="BT307401.3.1.4" bus2="ET2_2880.3.1.4" linecode="59_3" length=0.02532 units=km
New "Line.SBT_3866" phases=1 bus1="BT38251.1.4" bus2="BT38241.1.4" linecode="60_2" length=0.05597 units=km
New "Line.SBT_4514" phases=2 bus1="BT549501.1.2.4" bus2="BT34761.1.2.4" linecode="59_3" length=0.03536 units=km
New "Line.SBT_5310" phases=1 bus1="BT497981.1.4" bus2="BT33951.1.4" linecode="62_2" length=0.08884 units=km
New "Line.SBT_3864" phases=2 bus1="BT40961.1.2.4" bus2="ET28_4602.1.2.4" linecode="76_3" length=0.06873 units=km
New "Line.SBT_34907" phases=1 bus1="BT806381.2.4" bus2="BT337621.2.4" linecode="62_2" length=0.05235 units=km
