New line.2449 phases = 3 bus1 = 237 bus2 = 8685 
~ length = 40 units = m 
~ linecode = 86851

New line.2450 phases = 3 bus1 = 8685 bus2 = 239 
~ length = 40 units = m 
~ linecode = 2391

New line.2430 phases = 3 bus1 = 8630 bus2 = 8629 
~ length = 40 units = m 
~ linecode = 86291

New line.2431 phases = 3 bus1 = 8631 bus2 = 8630 
~ length = 40 units = m 
~ linecode = 86301

New line.2432 phases = 3 bus1 = 8632 bus2 = 8641 
~ length = 40 units = m 
~ linecode = 86411

New line.2433 phases = 3 bus1 = 8633 bus2 = 2475 
~ length = 40 units = m 
~ linecode = 24751

New line.2434 phases = 3 bus1 = 8641 bus2 = 8633 
~ length = 40 units = m 
~ linecode = 86331

New line.2435 phases = 3 bus1 = 8642 bus2 = 8625 
~ length = 40 units = m 
~ linecode = 86251

New line.2415 phases = 3 bus1 = 8588 bus2 = 43 
~ length = 40 units = m 
~ linecode = 1CS121

New line.2416 phases = 3 bus1 = 19 bus2 = 8596 
~ length = 40 units = m 
~ linecode = 85961

New line.2417 phases = 3 bus1 = 1617 bus2 = 8596 
~ length = 40 units = m 
~ linecode = 85961

New line.2418 phases = 3 bus1 = 2489 bus2 = 8596 
~ length = 40 units = m 
~ linecode = 85961

New line.2419 phases = 3 bus1 = 8596 bus2 = 1616 
~ length = 40 units = m 
~ linecode = 16161

New line.2422 phases = 3 bus1 = 8622 bus2 = 8641 
~ length = 40 units = m 
~ linecode = 86411

New line.2423 phases = 3 bus1 = 8623 bus2 = 8641 
~ length = 40 units = m 
~ linecode = 86411

New line.2424 phases = 3 bus1 = 8624 bus2 = 8623 
~ length = 40 units = m 
~ linecode = 86231

New line.2425 phases = 3 bus1 = 8625 bus2 = 8624 
~ length = 40 units = m 
~ linecode = 86241

New line.2426 phases = 3 bus1 = 8626 bus2 = 8642 
~ length = 40 units = m 
~ linecode = 86421

New line.2427 phases = 3 bus1 = 8627 bus2 = 8642 
~ length = 40 units = m 
~ linecode = 86421

New line.2428 phases = 3 bus1 = 8628 bus2 = 8642 
~ length = 40 units = m 
~ linecode = 86421

New line.2429 phases = 3 bus1 = 8629 bus2 = 8628 
~ length = 40 units = m 
~ linecode = 86281

New line.2398 phases = 3 bus1 = 726 bus2 = 725 
~ length = 40 units = m 
~ linecode = 7252

New line.2399 phases = 3 bus1 = 8144 bus2 = 8545 
~ length = 40 units = m 
~ linecode = 85452

New line.2401 phases = 3 bus1 = 8544 bus2 = 8545 
~ length = 40 units = m 
~ linecode = 85452

New line.2402 phases = 3 bus1 = 8545 bus2 = 8160 
~ length = 40 units = m 
~ linecode = 81601

New line.2377 phases = 3 bus1 = 8487 bus2 = 1844 
~ length = 40 units = m 
~ linecode = 18441

New line.2378 phases = 3 bus1 = 8501 bus2 = 3352 
~ length = 40 units = m 
~ linecode = 33521

New line.2381 phases = 3 bus1 = 8513 bus2 = 1602 
~ length = 40 units = m 
~ linecode = 16021

New line.2382 phases = 3 bus1 = 8514 bus2 = 8513 
~ length = 40 units = m 
~ linecode = 85131

New line.2385 phases = 3 bus1 = 7359 bus2 = 8519 
~ length = 40 units = m 
~ linecode = 85191

New line.2386 phases = 3 bus1 = 8519 bus2 = 6615 
~ length = 40 units = m 
~ linecode = 66151

New line.2393 phases = 3 bus1 = 897 bus2 = 3411 
~ length = 40 units = m 
~ linecode = 34111

New line.2394 phases = 3 bus1 = 898 bus2 = 897 
~ length = 40 units = m 
~ linecode = 1CS141

New line.2395 phases = 3 bus1 = 2004 bus2 = 3411 
~ length = 40 units = m 
~ linecode = 34111

New line.2364 phases = 3 bus1 = 8439 bus2 = 3171 
~ length = 40 units = m 
~ linecode = 31711

New line.2367 phases = 3 bus1 = 1447 bus2 = 8445 
~ length = 40 units = m 
~ linecode = 84451

New line.2368 phases = 3 bus1 = 8445 bus2 = 471 
~ length = 40 units = m 
~ linecode = 4711

New line.2370 phases = 3 bus1 = 2931 bus2 = 2780 
~ length = 40 units = m 
~ linecode = 27801

New line.2369 phases = 3 bus1 = 8447 bus2 = 1807 
~ length = 40 units = m 
~ linecode = 1CF152

New line.2379 phases = 3 bus1 = 1602 bus2 = 7763 
~ length = 40 units = m 
~ linecode = 77631

New line.2372 phases = 3 bus1 = 8488 bus2 = 8487 
~ length = 40 units = m 
~ linecode = 84871

New line.2373 phases = 3 bus1 = 8489 bus2 = 8488 
~ length = 40 units = m 
~ linecode = 84881

New line.2374 phases = 3 bus1 = 8490 bus2 = 8489 
~ length = 40 units = m 
~ linecode = 84891

New line.2375 phases = 3 bus1 = 8491 bus2 = 8490 
~ length = 40 units = m 
~ linecode = 84901

New line.2376 phases = 3 bus1 = 8492 bus2 = 8491 
~ length = 40 units = m 
~ linecode = 84911

New line.2380 phases = 3 bus1 = 1852 bus2 = 1606 
~ length = 40 units = m 
~ linecode = 16061

New line.2351 phases = 3 bus1 = 8430 bus2 = 1218 
~ length = 40 units = m 
~ linecode = 12181

New line.2352 phases = 3 bus1 = 8223 bus2 = 8430 
~ length = 40 units = m 
~ linecode = 84301

New line.2353 phases = 3 bus1 = 8429 bus2 = 8430 
~ length = 40 units = m 
~ linecode = 1CF151

New line.2354 phases = 3 bus1 = 8428 bus2 = 8429 
~ length = 40 units = m 
~ linecode = 84291

New line.2355 phases = 3 bus1 = 8427 bus2 = 8428 
~ length = 40 units = m 
~ linecode = 84281

New line.2356 phases = 3 bus1 = 8426 bus2 = 8427 
~ length = 40 units = m 
~ linecode = 84271

New line.2329 phases = 3 bus1 = 1819 bus2 = 8397 
~ length = 40 units = m 
~ linecode = 83971

New line.2330 phases = 3 bus1 = 1820 bus2 = 8397 
~ length = 40 units = m 
~ linecode = 83971

New line.2331 phases = 3 bus1 = 8397 bus2 = 1821 
~ length = 40 units = m 
~ linecode = 18211

New line.2332 phases = 3 bus1 = 8398 bus2 = 1819 
~ length = 40 units = m 
~ linecode = 18191

New line.2318 phases = 3 bus1 = 8366 bus2 = 2190 
~ length = 40 units = m 
~ linecode = 1CF148

New line.2322 phases = 3 bus1 = 1293 bus2 = 2105 
~ length = 40 units = m 
~ linecode = 21051

New line.2323 phases = 3 bus1 = 2103 bus2 = 153 
~ length = 40 units = m 
~ linecode = 1CS62

New line.2324 phases = 3 bus1 = 2105 bus2 = 2103 
~ length = 40 units = m 
~ linecode = 21031

New line.2325 phases = 3 bus1 = 8392 bus2 = 2081 
~ length = 40 units = m 
~ linecode = 1CF149

New line.2326 phases = 3 bus1 = 84 bus2 = 1432 
~ length = 40 units = m 
~ linecode = 14321

New line.2327 phases = 3 bus1 = 1465 bus2 = 1818 
~ length = 40 units = m 
~ linecode = 18181

New line.2328 phases = 3 bus1 = 1818 bus2 = 8397 
~ length = 40 units = m 
~ linecode = 83971

New line.2295 phases = 3 bus1 = 2940 bus2 = 2941 
~ length = 40 units = m 
~ linecode = 29411

New line.2296 phases = 3 bus1 = 2941 bus2 = 2942 
~ length = 40 units = m 
~ linecode = 29421

New line.2297 phases = 3 bus1 = 2942 bus2 = 2943 
~ length = 40 units = m 
~ linecode = 29431

New line.2298 phases = 3 bus1 = 2943 bus2 = 2944 
~ length = 40 units = m 
~ linecode = 29441

New line.2299 phases = 3 bus1 = 2944 bus2 = 3008 
~ length = 40 units = m 
~ linecode = 30081

New line.2300 phases = 3 bus1 = 3008 bus2 = 3377 
~ length = 40 units = m 
~ linecode = 33771

New line.2301 phases = 3 bus1 = 3011 bus2 = 3377 
~ length = 40 units = m 
~ linecode = 33771

New line.2302 phases = 3 bus1 = 3377 bus2 = 2116 
~ length = 40 units = m 
~ linecode = 21161

New line.2303 phases = 3 bus1 = 7753 bus2 = 545 
~ length = 40 units = m 
~ linecode = 5451

New line.2312 phases = 3 bus1 = 1680 bus2 = 8262 
~ length = 40 units = m 
~ linecode = 82621

New line.2292 phases = 3 bus1 = 6940 bus2 = 8329 
~ length = 40 units = m 
~ linecode = 83291

New line.2293 phases = 3 bus1 = 8329 bus2 = 3376 
~ length = 40 units = m 
~ linecode = 33761

New line.2294 phases = 3 bus1 = 2115 bus2 = 3377 
~ length = 40 units = m 
~ linecode = 33771

New line.2260 phases = 3 bus1 = 8262 bus2 = 1682 
~ length = 40 units = m 
~ linecode = 16821

New line.2255 phases = 3 bus1 = 2193 bus2 = 2191 
~ length = 40 units = m 
~ linecode = 21911

New line.2233 phases = 3 bus1 = 1611 bus2 = 792 
~ length = 40 units = m 
~ linecode = 1CS17

New line.2234 phases = 3 bus1 = 8197 bus2 = 2793 
~ length = 40 units = m 
~ linecode = 27931

New line.2235 phases = 3 bus1 = 8198 bus2 = 8197 
~ length = 40 units = m 
~ linecode = 81971

New line.2191 phases = 3 bus1 = 8158 bus2 = 8172 
~ length = 40 units = m 
~ linecode = 81721

New line.2197 phases = 3 bus1 = 8222 bus2 = 8223 
~ length = 40 units = m 
~ linecode = 82231

New line.2198 phases = 3 bus1 = 8221 bus2 = 8222 
~ length = 40 units = m 
~ linecode = 1CS47

New line.2200 phases = 3 bus1 = 8219 bus2 = 8220 
~ length = 40 units = m 
~ linecode = 82201

New line.2201 phases = 3 bus1 = 8218 bus2 = 8219 
~ length = 40 units = m 
~ linecode = 82191

New line.2199 phases = 3 bus1 = 8220 bus2 = 8221 
~ length = 40 units = m 
~ linecode = 82211

New line.2202 phases = 3 bus1 = 8217 bus2 = 8218 
~ length = 40 units = m 
~ linecode = 82181

New line.2203 phases = 3 bus1 = 8216 bus2 = 8217 
~ length = 40 units = m 
~ linecode = 82171

New line.2204 phases = 3 bus1 = 8215 bus2 = 8216 
~ length = 40 units = m 
~ linecode = 82161

New line.2205 phases = 3 bus1 = 8214 bus2 = 8215 
~ length = 40 units = m 
~ linecode = 82151

New line.2206 phases = 3 bus1 = 8213 bus2 = 8214 
~ length = 40 units = m 
~ linecode = 82141

New line.2207 phases = 3 bus1 = 471 bus2 = 8226 
~ length = 40 units = m 
~ linecode = RT4711

New line.2174 phases = 3 bus1 = 8170 bus2 = 6889 
~ length = 40 units = m 
~ linecode = 68891

New line.2175 phases = 3 bus1 = 8146 bus2 = 8170 
~ length = 40 units = m 
~ linecode = 81701

New line.2176 phases = 3 bus1 = 8165 bus2 = 8146 
~ length = 40 units = m 
~ linecode = 81461

New line.2177 phases = 3 bus1 = 8164 bus2 = 8165 
~ length = 40 units = m 
~ linecode = 81651

New line.2178 phases = 3 bus1 = 8163 bus2 = 8164 
~ length = 40 units = m 
~ linecode = 81641

New line.2179 phases = 3 bus1 = 8162 bus2 = 8163 
~ length = 40 units = m 
~ linecode = 81631

New line.2180 phases = 3 bus1 = 8161 bus2 = 8162 
~ length = 40 units = m 
~ linecode = 81621

New line.2181 phases = 3 bus1 = 8160 bus2 = 8161 
~ length = 40 units = m 
~ linecode = 81611

New line.2185 phases = 3 bus1 = 8143 bus2 = 8545 
~ length = 40 units = m 
~ linecode = 85452

New line.2186 phases = 3 bus1 = 8155 bus2 = 8143 
~ length = 40 units = m 
~ linecode = 81431

New line.2187 phases = 3 bus1 = 8154 bus2 = 8155 
~ length = 40 units = m 
~ linecode = 81551

New line.2188 phases = 3 bus1 = 8172 bus2 = 8154 
~ length = 40 units = m 
~ linecode = 81541

New line.2189 phases = 3 bus1 = 8153 bus2 = 8172 
~ length = 40 units = m 
~ linecode = 81721

New line.2190 phases = 3 bus1 = 8157 bus2 = 8172 
~ length = 40 units = m 
~ linecode = 81721

New line.2159 phases = 3 bus1 = 8108 bus2 = 897 
~ length = 40 units = m 
~ linecode = 1CF135

New line.2141 phases = 3 bus1 = 7259 bus2 = 2469 
~ length = 40 units = m 
~ linecode = 24691

New line.2142 phases = 3 bus1 = 7260 bus2 = 7259 
~ length = 40 units = m 
~ linecode = 72591

New line.2143 phases = 3 bus1 = 8045 bus2 = 7260 
~ length = 40 units = m 
~ linecode = 72601

New line.2144 phases = 3 bus1 = 8030 bus2 = 8045 
~ length = 40 units = m 
~ linecode = 80451

New line.2145 phases = 3 bus1 = 2361 bus2 = 2360 
~ length = 40 units = m 
~ linecode = 23601

New line.2146 phases = 3 bus1 = 2360 bus2 = 152 
~ length = 40 units = m 
~ linecode = 1CS45

New line.2088 phases = 3 bus1 = 7772 bus2 = 7766 
~ length = 40 units = m 
~ linecode = 77661

New line.2085 phases = 3 bus1 = 261 bus2 = 7810 
~ length = 40 units = m 
~ linecode = 78101

New line.2086 phases = 3 bus1 = 7773 bus2 = 7810 
~ length = 40 units = m 
~ linecode = 78101

New line.2087 phases = 3 bus1 = 7810 bus2 = 7772 
~ length = 40 units = m 
~ linecode = 77721

New line.2089 phases = 3 bus1 = 7766 bus2 = 54 
~ length = 40 units = m 
~ linecode = 541

New line.2090 phases = 3 bus1 = 54 bus2 = 7767 
~ length = 40 units = m 
~ linecode = 77671

New line.2091 phases = 3 bus1 = 7767 bus2 = 7768 
~ length = 40 units = m 
~ linecode = 77681

New line.2092 phases = 3 bus1 = 7768 bus2 = 1634 
~ length = 40 units = m 
~ linecode = 1CS123

New line.2065 phases = 3 bus1 = 7762 bus2 = 550 
~ length = 40 units = m 
~ linecode = 5501

New line.2064 phases = 3 bus1 = 7380 bus2 = 7719 
~ length = 40 units = m 
~ linecode = 77192

New line.2066 phases = 3 bus1 = 7763 bus2 = 7762 
~ length = 40 units = m 
~ linecode = 77621

New line.2068 phases = 3 bus1 = 2394 bus2 = 7771 
~ length = 40 units = m 
~ linecode = 77711

New line.2069 phases = 3 bus1 = 1990 bus2 = 7771 
~ length = 40 units = m 
~ linecode = 77711

New line.2070 phases = 3 bus1 = 2390 bus2 = 7771 
~ length = 40 units = m 
~ linecode = 77711

New line.2071 phases = 3 bus1 = 2391 bus2 = 2390 
~ length = 40 units = m 
~ linecode = 23901

New line.2072 phases = 3 bus1 = 7148 bus2 = 2391 
~ length = 40 units = m 
~ linecode = 23911

New line.2073 phases = 3 bus1 = 2972 bus2 = 7148 
~ length = 40 units = m 
~ linecode = 71481

New line.2074 phases = 3 bus1 = 7764 bus2 = 2972 
~ length = 40 units = m 
~ linecode = 29721

New line.2049 phases = 3 bus1 = 36 bus2 = 35 
~ length = 40 units = m 
~ linecode = 351

New line.2050 phases = 3 bus1 = 35 bus2 = 1178 
~ length = 40 units = m 
~ linecode = 11781

New line.2051 phases = 3 bus1 = 1178 bus2 = 6468 
~ length = 40 units = m 
~ linecode = 64682

New line.2052 phases = 3 bus1 = 6468 bus2 = 289 
~ length = 40 units = m 
~ linecode = 2891

New line.2053 phases = 3 bus1 = 289 bus2 = 355 
~ length = 40 units = m 
~ linecode = 3551

New line.2054 phases = 3 bus1 = 355 bus2 = 356 
~ length = 40 units = m 
~ linecode = 3561

New line.2055 phases = 3 bus1 = 356 bus2 = 357 
~ length = 40 units = m 
~ linecode = 3571

New line.2056 phases = 3 bus1 = 357 bus2 = 358 
~ length = 40 units = m 
~ linecode = 3581

New line.2057 phases = 3 bus1 = 358 bus2 = 418 
~ length = 40 units = m 
~ linecode = 4181

New line.2058 phases = 3 bus1 = 418 bus2 = 857 
~ length = 40 units = m 
~ linecode = 1CS58

New line.2059 phases = 3 bus1 = 7698 bus2 = 2470 
~ length = 40 units = m 
~ linecode = 24701

New line.2060 phases = 3 bus1 = 7437 bus2 = 7441 
~ length = 40 units = m 
~ linecode = 74411

New line.2061 phases = 3 bus1 = 7436 bus2 = 7437 
~ length = 40 units = m 
~ linecode = 74371

New line.2062 phases = 3 bus1 = 7719 bus2 = 7436 
~ length = 40 units = m 
~ linecode = 74361

New line.2063 phases = 3 bus1 = 7438 bus2 = 7719 
~ length = 40 units = m 
~ linecode = 77192

New line.2028 phases = 3 bus1 = 1172 bus2 = 1171 
~ length = 40 units = m 
~ linecode = 11711

New line.2029 phases = 3 bus1 = 1173 bus2 = 1172 
~ length = 40 units = m 
~ linecode = 11721

New line.2030 phases = 3 bus1 = 1176 bus2 = 1173 
~ length = 40 units = m 
~ linecode = 11731

New line.2031 phases = 3 bus1 = 1177 bus2 = 1176 
~ length = 40 units = m 
~ linecode = 11761

New line.2032 phases = 3 bus1 = 1177 bus2 = 1213 
~ length = 40 units = m 
~ linecode = 1CS92

New line.2033 phases = 3 bus1 = 1213 bus2 = 3418 
~ length = 40 units = m 
~ linecode = 34182

New line.2034 phases = 3 bus1 = 940 bus2 = 3418 
~ length = 40 units = m 
~ linecode = 34182

New line.2035 phases = 3 bus1 = 942 bus2 = 940 
~ length = 40 units = m 
~ linecode = 9401

New line.2010 phases = 3 bus1 = 7771 bus2 = 2395 
~ length = 40 units = m 
~ linecode = 23951

New line.2011 phases = 3 bus1 = 2397 bus2 = 2394 
~ length = 40 units = m 
~ linecode = 23941

New line.2012 phases = 3 bus1 = 902 bus2 = 903 
~ length = 40 units = m 
~ linecode = 1CS81

New line.2013 phases = 3 bus1 = 903 bus2 = 3386 
~ length = 40 units = m 
~ linecode = 33862

New line.2014 phases = 3 bus1 = 718 bus2 = 3386 
~ length = 40 units = m 
~ linecode = 33862

New line.2017 phases = 3 bus1 = 715 bus2 = 716 
~ length = 40 units = m 
~ linecode = 7161

New line.2015 phases = 3 bus1 = 717 bus2 = 718 
~ length = 40 units = m 
~ linecode = 7182

New line.2016 phases = 3 bus1 = 716 bus2 = 717 
~ length = 40 units = m 
~ linecode = 1CF27

New line.2018 phases = 3 bus1 = 1404 bus2 = 715 
~ length = 40 units = m 
~ linecode = 7151

New line.2019 phases = 3 bus1 = 1405 bus2 = 1404 
~ length = 40 units = m 
~ linecode = 14041

New line.2022 phases = 3 bus1 = 1407 bus2 = 1406 
~ length = 40 units = m 
~ linecode = 14061

New line.2020 phases = 3 bus1 = 3383 bus2 = 1405 
~ length = 40 units = m 
~ linecode = 14051

New line.2021 phases = 3 bus1 = 1406 bus2 = 3383 
~ length = 40 units = m 
~ linecode = 33832

New line.2023 phases = 3 bus1 = 1408 bus2 = 1407 
~ length = 40 units = m 
~ linecode = 14071

New line.2024 phases = 3 bus1 = 1749 bus2 = 1408 
~ length = 40 units = m 
~ linecode = 14081

New line.2025 phases = 3 bus1 = 1750 bus2 = 1749 
~ length = 40 units = m 
~ linecode = 17491

New line.2026 phases = 3 bus1 = 1751 bus2 = 1750 
~ length = 40 units = m 
~ linecode = 17501

New line.2027 phases = 3 bus1 = 1171 bus2 = 1751 
~ length = 40 units = m 
~ linecode = 17511

New line.1992 phases = 3 bus1 = 7644 bus2 = 7681 
~ length = 40 units = m 
~ linecode = 76811

New line.1993 phases = 3 bus1 = 7643 bus2 = 7644 
~ length = 40 units = m 
~ linecode = 76441

New line.1994 phases = 3 bus1 = 7642 bus2 = 7643 
~ length = 40 units = m 
~ linecode = 76431

New line.1995 phases = 3 bus1 = 7641 bus2 = 7642 
~ length = 40 units = m 
~ linecode = 76421

New line.1996 phases = 3 bus1 = 7640 bus2 = 7641 
~ length = 40 units = m 
~ linecode = 76411

New line.1997 phases = 3 bus1 = 7639 bus2 = 7640 
~ length = 40 units = m 
~ linecode = 76401

New line.1998 phases = 3 bus1 = 7638 bus2 = 7639 
~ length = 40 units = m 
~ linecode = 76391

New line.1999 phases = 3 bus1 = 7637 bus2 = 7638 
~ length = 40 units = m 
~ linecode = 76381

New line.2000 phases = 3 bus1 = 7682 bus2 = 7637 
~ length = 40 units = m 
~ linecode = 76371

New line.2001 phases = 3 bus1 = 7441 bus2 = 7682 
~ length = 40 units = m 
~ linecode = 76821

New line.2002 phases = 3 bus1 = 7649 bus2 = 7682 
~ length = 40 units = m 
~ linecode = 76821

New line.2003 phases = 3 bus1 = 7648 bus2 = 7682 
~ length = 40 units = m 
~ linecode = 76821

New line.2004 phases = 3 bus1 = 7646 bus2 = 7648 
~ length = 40 units = m 
~ linecode = 76481

New line.2005 phases = 3 bus1 = 7647 bus2 = 7646 
~ length = 40 units = m 
~ linecode = 76461

New line.2006 phases = 3 bus1 = 7650 bus2 = 7647 
~ length = 40 units = m 
~ linecode = 76471

New line.2007 phases = 3 bus1 = 725 bus2 = 7650 
~ length = 40 units = m 
~ linecode = 76501

New line.2009 phases = 3 bus1 = 2395 bus2 = 1849 
~ length = 40 units = m 
~ linecode = 18491

New line.1974 phases = 3 bus1 = 3031 bus2 = 7628 
~ length = 40 units = m 
~ linecode = 76281

New line.1975 phases = 3 bus1 = 7547 bus2 = 7628 
~ length = 40 units = m 
~ linecode = 76281

New line.1978 phases = 3 bus1 = 7544 bus2 = 7545 
~ length = 40 units = m 
~ linecode = 75451

New line.1976 phases = 3 bus1 = 7546 bus2 = 7628 
~ length = 40 units = m 
~ linecode = 76281

New line.1977 phases = 3 bus1 = 7545 bus2 = 7546 
~ length = 40 units = m 
~ linecode = 75461

New line.1979 phases = 3 bus1 = 7543 bus2 = 7544 
~ length = 40 units = m 
~ linecode = 75441

New line.1980 phases = 3 bus1 = 7542 bus2 = 7543 
~ length = 40 units = m 
~ linecode = 75431

New line.1981 phases = 3 bus1 = 1291 bus2 = 7542 
~ length = 40 units = m 
~ linecode = 75421

New line.1987 phases = 3 bus1 = 7679 bus2 = 7678 
~ length = 40 units = m 
~ linecode = 76781

New line.1988 phases = 3 bus1 = 7681 bus2 = 7679 
~ length = 40 units = m 
~ linecode = 76791

New line.1990 phases = 3 bus1 = 7680 bus2 = 7681 
~ length = 40 units = m 
~ linecode = 76811

New line.1991 phases = 3 bus1 = 7645 bus2 = 7681 
~ length = 40 units = m 
~ linecode = 76811

New line.1952 phases = 3 bus1 = 901 bus2 = 3422 
~ length = 40 units = m 
~ linecode = 34221

New line.1955 phases = 3 bus1 = 18 bus2 = 3422 
~ length = 40 units = m 
~ linecode = 34221

New line.1953 phases = 3 bus1 = 1998 bus2 = 3422 
~ length = 40 units = m 
~ linecode = 34221

New line.1954 phases = 3 bus1 = 1999 bus2 = 1998 
~ length = 40 units = m 
~ linecode = 19981

New line.1956 phases = 3 bus1 = 7587 bus2 = 194 
~ length = 40 units = m 
~ linecode = 1941

New line.1957 phases = 3 bus1 = 7588 bus2 = 7587 
~ length = 40 units = m 
~ linecode = 75871

New line.1958 phases = 3 bus1 = 7589 bus2 = 7588 
~ length = 40 units = m 
~ linecode = 75881

New line.1959 phases = 3 bus1 = 7590 bus2 = 7589 
~ length = 40 units = m 
~ linecode = 75891

New line.1960 phases = 3 bus1 = 7591 bus2 = 7590 
~ length = 40 units = m 
~ linecode = 75901

New line.1961 phases = 3 bus1 = 7594 bus2 = 7591 
~ length = 40 units = m 
~ linecode = 75911

New line.1934 phases = 3 bus1 = 7568 bus2 = 7582 
~ length = 40 units = m 
~ linecode = 75821

New line.1935 phases = 3 bus1 = 7569 bus2 = 7568 
~ length = 40 units = m 
~ linecode = 75681

New line.1936 phases = 3 bus1 = 7570 bus2 = 7569 
~ length = 40 units = m 
~ linecode = 75691

New line.1937 phases = 3 bus1 = 7571 bus2 = 7570 
~ length = 40 units = m 
~ linecode = 75701

New line.441 phases = 3 bus1 = 1673 bus2 = 1415 
~ length = 40 units = m 
~ linecode = 14151

New line.765 phases = 3 bus1 = 1297 bus2 = 1296 
~ length = 40 units = m 
~ linecode = 12961

New line.1926 phases = 3 bus1 = 7556 bus2 = 42 
~ length = 40 units = m 
~ linecode = 421

New line.1927 phases = 3 bus1 = 7557 bus2 = 7556 
~ length = 40 units = m 
~ linecode = 75561

New line.1928 phases = 3 bus1 = 7558 bus2 = 7557 
~ length = 40 units = m 
~ linecode = 75571

New line.1929 phases = 3 bus1 = 7559 bus2 = 7558 
~ length = 40 units = m 
~ linecode = 75581

New line.1930 phases = 3 bus1 = 7560 bus2 = 7559 
~ length = 40 units = m 
~ linecode = 75591

New line.1931 phases = 3 bus1 = 7582 bus2 = 7560 
~ length = 40 units = m 
~ linecode = 75601

New line.1932 phases = 3 bus1 = 7561 bus2 = 7582 
~ length = 40 units = m 
~ linecode = 75821

New line.1933 phases = 3 bus1 = 7567 bus2 = 7582 
~ length = 40 units = m 
~ linecode = 75821

New line.1510 phases = 3 bus1 = 2750 bus2 = 2749 
~ length = 40 units = m 
~ linecode = 27491

New line.20 phases = 3 bus1 = 1669 bus2 = 1668 
~ length = 40 units = m 
~ linecode = 1CS77

New line.34 phases = 3 bus1 = 3291 bus2 = 89 
~ length = 40 units = m 
~ linecode = 891

New line.1665 phases = 3 bus1 = 6941 bus2 = 6940 
~ length = 40 units = m 
~ linecode = 1CF40

New line.1850 phases = 3 bus1 = 7366 bus2 = 7367 
~ length = 40 units = m 
~ linecode = 73671

New line.846 phases = 3 bus1 = 2343 bus2 = 3243 
~ length = 40 units = m 
~ linecode = 32431

New line.946 phases = 3 bus1 = 2463 bus2 = 2464 
~ length = 40 units = m 
~ linecode = 24641

New line.1006 phases = 3 bus1 = 1521 bus2 = 1525 
~ length = 40 units = m 
~ linecode = 1CS81

New line.1111 phases = 3 bus1 = 1862 bus2 = 1861 
~ length = 40 units = m 
~ linecode = 1CF98

New line.1176 phases = 3 bus1 = 1865 bus2 = 1864 
~ length = 40 units = m 
~ linecode = 18641

New line.1213 phases = 3 bus1 = 148 bus2 = 3460 
~ length = 40 units = m 
~ linecode = 34601

New line.1242 phases = 3 bus1 = 797 bus2 = 3437 
~ length = 40 units = m 
~ linecode = 34371

New line.1482 phases = 3 bus1 = 168 bus2 = 169 
~ length = 40 units = m 
~ linecode = 1691

New line.320 phases = 3 bus1 = 1808 bus2 = 1809 
~ length = 40 units = m 
~ linecode = 18091

New line.339 phases = 3 bus1 = 233 bus2 = 234 
~ length = 40 units = m 
~ linecode = 2341

New line.372 phases = 3 bus1 = 706 bus2 = 705 
~ length = 40 units = m 
~ linecode = 7051

New line.457 phases = 3 bus1 = 107 bus2 = 108 
~ length = 40 units = m 
~ linecode = 1081

New line.1915 phases = 3 bus1 = 826 bus2 = 787 
~ length = 40 units = m 
~ linecode = 7871

New line.1916 phases = 3 bus1 = 825 bus2 = 826 
~ length = 40 units = m 
~ linecode = 1CS113

New line.519 phases = 3 bus1 = 175 bus2 = 176 
~ length = 40 units = m 
~ linecode = 1761

New line.590 phases = 3 bus1 = 2366 bus2 = 2367 
~ length = 40 units = m 
~ linecode = 1CS3

New line.732 phases = 3 bus1 = 2777 bus2 = 1962 
~ length = 40 units = m 
~ linecode = 19621

New line.781 phases = 3 bus1 = 2745 bus2 = 3149 
~ length = 40 units = m 
~ linecode = 31491

New line.109 phases = 3 bus1 = 1277 bus2 = 546 
~ length = 40 units = m 
~ linecode = 5461

New line.224 phases = 3 bus1 = 144 bus2 = 145 
~ length = 40 units = m 
~ linecode = 1451

New line.293 phases = 3 bus1 = 1988 bus2 = 781 
~ length = 40 units = m 
~ linecode = 7811

New line.1917 phases = 3 bus1 = 7527 bus2 = 567 
~ length = 40 units = m 
~ linecode = 5671

New line.1918 phases = 3 bus1 = 7528 bus2 = 7527 
~ length = 40 units = m 
~ linecode = 75271

New line.397 phases = 3 bus1 = 2111 bus2 = 2110 
~ length = 40 units = m 
~ linecode = 21101

New line.17 phases = 3 bus1 = 1378 bus2 = 2113 
~ length = 40 units = m 
~ linecode = 1CF104

New line.66 phases = 3 bus1 = 1734 bus2 = 1730 
~ length = 40 units = m 
~ linecode = 17301

New line.130 phases = 3 bus1 = 1142 bus2 = 912 
~ length = 40 units = m 
~ linecode = 9121

New line.1914 phases = 3 bus1 = 7525 bus2 = 1314 
~ length = 40 units = m 
~ linecode = 1CF124

New line.1919 phases = 3 bus1 = 7538 bus2 = 7528 
~ length = 40 units = m 
~ linecode = 1CF125

New line.1477 phases = 3 bus1 = 2488 bus2 = 6421 
~ length = 40 units = m 
~ linecode = 64211

New line.959 phases = 3 bus1 = 1443 bus2 = 1442 
~ length = 40 units = m 
~ linecode = 1CF96

New line.872 phases = 3 bus1 = 2464 bus2 = 2465 
~ length = 40 units = m 
~ linecode = 24651

New line.153 phases = 3 bus1 = 4740 bus2 = 1342 
~ length = 40 units = m 
~ linecode = 13421

New line.227 phases = 3 bus1 = 3266 bus2 = 2361 
~ length = 40 units = m 
~ linecode = 23611

New line.245 phases = 3 bus1 = 2746 bus2 = 3266 
~ length = 40 units = m 
~ linecode = 32661

New line.295 phases = 3 bus1 = 31 bus2 = 2442 
~ length = 40 units = m 
~ linecode = 24421

New line.1453 phases = 3 bus1 = 694 bus2 = 3345 
~ length = 40 units = m 
~ linecode = 33451

New line.956 phases = 3 bus1 = 2468 bus2 = 2467 
~ length = 40 units = m 
~ linecode = 24671

New line.36 phases = 3 bus1 = 673 bus2 = 672 
~ length = 40 units = m 
~ linecode = 6721

New line.831 phases = 3 bus1 = 2109 bus2 = 2108 
~ length = 40 units = m 
~ linecode = 21081

New line.640 phases = 3 bus1 = 2356 bus2 = 2195 
~ length = 40 units = m 
~ linecode = 21951

New line.670 phases = 3 bus1 = 433 bus2 = 3171 
~ length = 40 units = m 
~ linecode = 31711

New line.1885 phases = 3 bus1 = 7479 bus2 = 2363 
~ length = 40 units = m 
~ linecode = 23631

New line.759 phases = 3 bus1 = 1074 bus2 = 20 
~ length = 40 units = m 
~ linecode = 201

New line.786 phases = 3 bus1 = 2116 bus2 = 899 
~ length = 40 units = m 
~ linecode = 1CS22

New line.847 phases = 3 bus1 = 339 bus2 = 340 
~ length = 40 units = m 
~ linecode = 3401

New line.1175 phases = 3 bus1 = 1432 bus2 = 3468 
~ length = 40 units = m 
~ linecode = 34681

New line.1238 phases = 3 bus1 = 1986 bus2 = 1988 
~ length = 40 units = m 
~ linecode = 19881

New line.18 phases = 3 bus1 = 1825 bus2 = 3208 
~ length = 40 units = m 
~ linecode = 32081

New line.219 phases = 3 bus1 = 338 bus2 = 339 
~ length = 40 units = m 
~ linecode = 1CF126

New line.251 phases = 3 bus1 = 929 bus2 = 3144 
~ length = 40 units = m 
~ linecode = 31441

New line.341 phases = 3 bus1 = 14 bus2 = 11 
~ length = 40 units = m 
~ linecode = 111

New line.486 phases = 3 bus1 = 1296 bus2 = 1295 
~ length = 40 units = m 
~ linecode = 12951

New line.1610 phases = 3 bus1 = 6627 bus2 = 6628 
~ length = 40 units = m 
~ linecode = 66281

New line.955 phases = 3 bus1 = 250 bus2 = 249 
~ length = 40 units = m 
~ linecode = 2491

New line.300 phases = 3 bus1 = 530 bus2 = 3376 
~ length = 40 units = m 
~ linecode = 33761

New line.178 phases = 3 bus1 = 783 bus2 = 782 
~ length = 40 units = m 
~ linecode = 7821

New line.775 phases = 3 bus1 = 793 bus2 = 3347 
~ length = 40 units = m 
~ linecode = 33471

New line.798 phases = 3 bus1 = 1256 bus2 = 3409 
~ length = 40 units = m 
~ linecode = 34091

New line.1003 phases = 3 bus1 = 1593 bus2 = 1826 
~ length = 40 units = m 
~ linecode = 1CF7

New line.643 phases = 3 bus1 = 1959 bus2 = 1960 
~ length = 40 units = m 
~ linecode = 19601

New line.330 phases = 3 bus1 = 3243 bus2 = 2344 
~ length = 40 units = m 
~ linecode = 23441

New line.975 phases = 3 bus1 = 2466 bus2 = 2758 
~ length = 40 units = m 
~ linecode = 1CS4

New line.59 phases = 3 bus1 = 436 bus2 = 3293 
~ length = 40 units = m 
~ linecode = 32931

New line.225 phases = 3 bus1 = 6886 bus2 = 1767 
~ length = 40 units = m 
~ linecode = 17671

New line.588 phases = 3 bus1 = 2363 bus2 = 2364 
~ length = 40 units = m 
~ linecode = 23641

New line.888 phases = 3 bus1 = 3317 bus2 = 683 
~ length = 40 units = m 
~ linecode = 1CS144

New line.1260 phases = 3 bus1 = 1348 bus2 = 1421 
~ length = 40 units = m 
~ linecode = 14211

New line.5 phases = 3 bus1 = 1144 bus2 = 1145 
~ length = 40 units = m 
~ linecode = 11451

New line.1505 phases = 3 bus1 = 6470 bus2 = 2751 
~ length = 40 units = m 
~ linecode = 27511

New line.1543 phases = 3 bus1 = 2357 bus2 = 6793 
~ length = 40 units = m 
~ linecode = 67931

New line.1875 phases = 3 bus1 = 7474 bus2 = 553 
~ length = 40 units = m 
~ linecode = 5531

New line.1620 phases = 3 bus1 = 919 bus2 = 6874 
~ length = 40 units = m 
~ linecode = 68741

New line.1681 phases = 3 bus1 = 1373 bus2 = 7219 
~ length = 40 units = m 
~ linecode = 72191

New line.1876 phases = 3 bus1 = 682 bus2 = 7474 
~ length = 40 units = m 
~ linecode = 74741

New line.1877 phases = 3 bus1 = 386 bus2 = 682 
~ length = 40 units = m 
~ linecode = 6821

New line.1878 phases = 3 bus1 = 1879 bus2 = 3443 
~ length = 40 units = m 
~ linecode = 34431

New line.1879 phases = 3 bus1 = 2794 bus2 = 3443 
~ length = 40 units = m 
~ linecode = 34431

New line.1880 phases = 3 bus1 = 1878 bus2 = 2794 
~ length = 40 units = m 
~ linecode = 27941

New line.1881 phases = 3 bus1 = 2793 bus2 = 3443 
~ length = 40 units = m 
~ linecode = 34431

New line.1856 phases = 3 bus1 = 7376 bus2 = 7377 
~ length = 40 units = m 
~ linecode = 73771

New line.1857 phases = 3 bus1 = 7377 bus2 = 7378 
~ length = 40 units = m 
~ linecode = 73781

New line.1858 phases = 3 bus1 = 7378 bus2 = 7379 
~ length = 40 units = m 
~ linecode = 73791

New line.1859 phases = 3 bus1 = 7379 bus2 = 7380 
~ length = 40 units = m 
~ linecode = 73801

New line.1860 phases = 3 bus1 = 7375 bus2 = 7398 
~ length = 40 units = m 
~ linecode = 73981

New line.1861 phases = 3 bus1 = 7374 bus2 = 7375 
~ length = 40 units = m 
~ linecode = 73751
