New linecode.3 nphases = 3 basefreq = 60 units = km Normamps = 479 
~ R1 = 0.195 !ohm/km 
~ X1 = 0.2802 !ohm/km 
~ C1 = 0.00

New linecode.56 nphases = 3 basefreq = 60 units = km Normamps = 172 
~ R1 = 0.975 !ohm/km 
~ X1 = 0.3576 !ohm/km 
~ C1 = 0.00

New linecode.63 nphases = 3 basefreq = 60 units = km Normamps = 130 
~ R1 = 1.551 !ohm/km 
~ X1 = 0.4495 !ohm/km 
~ C1 = 0.00

New linecode.67 nphases = 3 basefreq = 60 units = km Normamps = 230 
~ R1 = 0.613 !ohm/km 
~ X1 = 0.3879 !ohm/km 
~ C1 = 0.00

New linecode.68 nphases = 3 basefreq = 60 units = km Normamps = 230 
~ R1 = 0.613 !ohm/km 
~ X1 = 0.387 !ohm/km 
~ C1 = 0.00

New linecode.70 nphases = 3 basefreq = 60 units = km Normamps = 351 
~ R1 = 0.306 !ohm/km 
~ X1 = 0.313 !ohm/km 
~ C1 = 0.00

New linecode.113 nphases = 3 basefreq = 60 units = km Normamps = 335 
~ R1 = 0.289 !ohm/km 
~ X1 = 0.271 !ohm/km 
~ C1 = 0.00

New linecode.114 nphases = 3 basefreq = 60 units = km Normamps = 212 
~ R1 = 0.506 !ohm/km 
~ X1 = 0.3255 !ohm/km 
~ C1 = 0.00

New linecode.118 nphases = 3 basefreq = 60 units = km Normamps = 172 
~ R1 = 0.975 !ohm/km 
~ X1 = 0.3576 !ohm/km 
~ C1 = 0.00

New linecode.122 nphases = 3 basefreq = 60 units = km Normamps = 188 
~ R1 = 0.732 !ohm/km 
~ X1 = 0.309 !ohm/km 
~ C1 = 0.00

New linecode.124 nphases = 3 basefreq = 60 units = km Normamps = 100 
~ R1 = 0.596 !ohm/km 
~ X1 = 0.1128 !ohm/km 
~ C1 = 0.00

