New loadshape.Residencial npts = 24 interval = 1 mult = (0.875718121, 0.7379304, 0.659207807, 0.633476025, 0.61442096, 0.678764605, 0.804322151, 0.925609108, 0.812108228, 0.738965351, 0.841846193, 0.950237106, 0.976420214, 0.851260093, 0.761985332, 0.77603361, 0.837538914, 1.369080181, 2.392437728, 1.778169959, 1.383523896, 1.353454872, 1.166310245, 1.081178899) 
New loadshape.Comercial npts = 24 interval = 1 mult = (0.540290381, 0.522840237, 0.500970213, 0.490532996, 0.508517788, 0.547920027, 0.571156332, 0.702277961, 1.102078597, 1.403910599, 1.577798928, 1.549089466, 1.283974133, 1.426076057, 1.579967453, 1.589447048, 1.55488613, 1.453487725, 1.202275416, 1.006271074, 0.859995139, 0.770251199, 0.670245313, 0.585739789) 
New loadshape.Industrial npts = 24 interval = 1 mult = (0.371480548, 0.336803009, 0.342382469, 0.356678593, 0.422471297, 0.550753421, 0.654840865, 1.110008527, 1.596005663, 1.705449919, 1.852359559, 1.730589546, 1.008336908, 1.532508343, 1.870899751, 1.799217941, 1.690571957, 1.463406208, 0.925729658 0.739420845, 0.559664929, 0.520173023, 0.45983599, 0.40041103) 
New loadshape.Serv_Pub npts = 24 interval = 1 mult = (0.715469742, 0.667620058, 0.66107404, 0.682765098, 0.652029173, 0.698830552, 0.861324277, 1.01744213, 1.137088058, 1.209694169, 1.250450996, 1.263345256, 1.250983732, 1.204525696, 1.187173553, 1.171167595, 1.187824991, 1.180237526, 1.160738967, 1.084776851, 1.040818453, 0.998823054, 0.915379224, 0.80041681) 
New loadshape.A4 npts = 24 interval = 1 mult = (0.797062444, 0.776931084, 0.770858997, 0.788911111, 0.826906519, 0.91039443, 0.995234812, 1.154512925, 1.264221535, 1.292436805, 1.326093804, 1.295605964, 1.182864062, 1.318314054, 1.347710884, 1.338456486, 1.309773825, 1.158663378, 0.740455996, 0.53623314, 0.508044577, 0.65548448, 0.869557771, 0.835270918) 
New loadshape.IP npts = 24 interval = 1 mult = (2.013976041, 2.013976041, 2.013976041, 2.013976041, 2.013976041, 2.013976041, 1.594394572, 0.167832588, 0, 0, 0, 0, 0, 0, 0, 0, 0, 0, 0.251748882, 1.846143453, 2.013976041, 2.013976041, 2.013976041, 2.013976041) 
